<?xml version="1.0" encoding="UTF-8"?>

<!-- generated on 2023-05-29 05:00:14 by Eclipse SUMO netedit Version 1.17.0
<configuration xmlns:xsi="http://www.w3.org/2001/XMLSchema-instance" xsi:noNamespaceSchemaLocation="http://sumo.dlr.de/xsd/netconvertConfiguration.xsd">

    <input>
        <sumocfg-file value="C:\Users\Cybor\Desktop\Traffic-net-main\modelo.sumocfg"/>
        <sumo-net-file value="C:\Users\Cybor\Desktop\Traffic-net-main\estaciones_carga\output.net.xml"/>
    </input>

    <output>
        <output-file value="C:\Users\Cybor\Desktop\Traffic-net-main\estaciones_carga\output.net.xml"/>
    </output>

    <processing>
        <geometry.min-radius.fix.railways value="false"/>
        <geometry.max-grade.fix value="false"/>
        <offset.disable-normalization value="true"/>
        <lefthand value="0"/>
    </processing>

    <junctions>
        <no-turnarounds value="true"/>
        <junctions.corner-detail value="5"/>
        <junctions.limit-turn-speed value="5.50"/>
        <rectangular-lane-cut value="0"/>
    </junctions>

    <pedestrian>
        <walkingareas value="0"/>
    </pedestrian>

</configuration>
-->

<net version="1.16" junctionCornerDetail="5" limitTurnSpeed="5.50" xmlns:xsi="http://www.w3.org/2001/XMLSchema-instance" xsi:noNamespaceSchemaLocation="http://sumo.dlr.de/xsd/net_file.xsd">

    <location netOffset="-591763.63,-511225.38" convBoundary="0.00,0.00,8108.11,8116.43" origBoundary="-74.172613,4.624574,-74.099574,4.698046" projParameter="+proj=utm +zone=18 +ellps=WGS84 +datum=WGS84 +units=m +no_defs"/>

    <type id="highway.bridleway" priority="1" numLanes="1" speed="2.78" allow="pedestrian" oneway="1" width="2.00"/>
    <type id="highway.bus_guideway" priority="1" numLanes="1" speed="27.78" allow="bus" oneway="1"/>
    <type id="highway.cycleway" priority="1" numLanes="1" speed="5.56" allow="bicycle" oneway="0" width="1.00"/>
    <type id="highway.footway" priority="1" numLanes="1" speed="2.78" allow="pedestrian" oneway="1" width="2.00"/>
    <type id="highway.ford" priority="1" numLanes="1" speed="2.78" allow="army" oneway="0"/>
    <type id="highway.living_street" priority="2" numLanes="1" speed="2.78" disallow="tram rail_urban rail rail_electric rail_fast ship" oneway="0"/>
    <type id="highway.motorway" priority="14" numLanes="2" speed="39.44" allow="private emergency authority army vip passenger hov taxi bus coach delivery truck trailer motorcycle evehicle custom1 custom2" oneway="1"/>
    <type id="highway.motorway_link" priority="9" numLanes="1" speed="22.22" allow="private emergency authority army vip passenger hov taxi bus coach delivery truck trailer motorcycle evehicle custom1 custom2" oneway="1"/>
    <type id="highway.path" priority="1" numLanes="1" speed="5.56" allow="pedestrian bicycle" oneway="0" width="2.00"/>
    <type id="highway.pedestrian" priority="1" numLanes="1" speed="2.78" allow="pedestrian" oneway="1" width="2.00"/>
    <type id="highway.primary" priority="12" numLanes="2" speed="27.78" disallow="tram rail_urban rail rail_electric rail_fast ship" oneway="0"/>
    <type id="highway.primary_link" priority="7" numLanes="1" speed="22.22" disallow="tram rail_urban rail rail_electric rail_fast ship" oneway="0"/>
    <type id="highway.raceway" priority="15" numLanes="2" speed="83.33" allow="vip" oneway="0"/>
    <type id="highway.residential" priority="3" numLanes="1" speed="13.89" disallow="tram rail_urban rail rail_electric rail_fast ship" oneway="0"/>
    <type id="highway.secondary" priority="11" numLanes="1" speed="27.78" disallow="tram rail_urban rail rail_electric rail_fast ship" oneway="0"/>
    <type id="highway.secondary_link" priority="6" numLanes="1" speed="22.22" disallow="tram rail_urban rail rail_electric rail_fast ship" oneway="0"/>
    <type id="highway.service" priority="1" numLanes="1" speed="5.56" allow="pedestrian delivery bicycle" oneway="0"/>
    <type id="highway.stairs" priority="1" numLanes="1" speed="1.39" allow="pedestrian" oneway="1" width="2.00"/>
    <type id="highway.step" priority="1" numLanes="1" speed="1.39" allow="pedestrian" oneway="1" width="2.00"/>
    <type id="highway.steps" priority="1" numLanes="1" speed="1.39" allow="pedestrian" oneway="1" width="2.00"/>
    <type id="highway.tertiary" priority="10" numLanes="1" speed="22.22" disallow="tram rail_urban rail rail_electric rail_fast ship" oneway="0"/>
    <type id="highway.tertiary_link" priority="5" numLanes="1" speed="22.22" disallow="tram rail_urban rail rail_electric rail_fast ship" oneway="0"/>
    <type id="highway.track" priority="1" numLanes="1" speed="5.56" allow="pedestrian motorcycle moped bicycle" oneway="0"/>
    <type id="highway.trunk" priority="13" numLanes="2" speed="27.78" disallow="pedestrian bicycle tram rail_urban rail rail_electric rail_fast ship" oneway="0"/>
    <type id="highway.trunk_link" priority="8" numLanes="1" speed="22.22" disallow="pedestrian bicycle tram rail_urban rail rail_electric rail_fast ship" oneway="0"/>
    <type id="highway.unclassified" priority="4" numLanes="1" speed="13.89" disallow="tram rail_urban rail rail_electric rail_fast ship" oneway="0"/>
    <type id="highway.unsurfaced" priority="1" numLanes="1" speed="8.33" disallow="tram rail_urban rail rail_electric rail_fast ship" oneway="0"/>
    <type id="railway.highspeed" priority="21" numLanes="1" speed="69.44" allow="rail_fast" oneway="1"/>
    <type id="railway.light_rail" priority="19" numLanes="1" speed="27.78" allow="rail_urban" oneway="1"/>
    <type id="railway.preserved" priority="16" numLanes="1" speed="27.78" allow="rail" oneway="1"/>
    <type id="railway.rail" priority="20" numLanes="1" speed="44.44" allow="rail" oneway="1"/>
    <type id="railway.subway" priority="18" numLanes="1" speed="27.78" allow="rail_urban" oneway="1"/>
    <type id="railway.tram" priority="17" numLanes="1" speed="13.89" allow="tram" oneway="1"/>

    <edge id=":10002573623_0" function="internal">
        <lane id=":10002573623_0_0" index="0" disallow="tram rail_urban rail rail_electric rail_fast ship" speed="27.78" length="0.72" shape="2543.43,5858.78 2543.82,5858.17"/>
        <lane id=":10002573623_0_1" index="1" disallow="tram rail_urban rail rail_electric rail_fast ship" speed="27.78" length="0.72" shape="2540.74,5857.03 2541.14,5856.43"/>
    </edge>
    <edge id=":10002573623_2" function="internal">
        <lane id=":10002573623_2_0" index="0" disallow="tram rail_urban rail rail_electric rail_fast ship" speed="27.78" length="0.73" shape="2535.77,5852.94 2535.37,5853.55"/>
        <lane id=":10002573623_2_1" index="1" disallow="tram rail_urban rail rail_electric rail_fast ship" speed="27.78" length="0.73" shape="2538.46,5854.68 2538.06,5855.29"/>
    </edge>
    <edge id=":10002573626_0" function="internal">
        <lane id=":10002573626_0_0" index="0" disallow="tram rail_urban rail rail_electric rail_fast ship" speed="27.78" length="0.50" shape="2537.72,5867.91 2538.00,5867.45"/>
        <lane id=":10002573626_0_1" index="1" disallow="tram rail_urban rail rail_electric rail_fast ship" speed="27.78" length="0.50" shape="2534.97,5866.27 2535.21,5865.87"/>
    </edge>
    <edge id=":10002573626_2" function="internal">
        <lane id=":10002573626_2_0" index="0" disallow="tram rail_urban rail rail_electric rail_fast ship" speed="27.78" length="0.36" shape="2529.65,5862.71 2529.48,5862.98"/>
        <lane id=":10002573626_2_1" index="1" disallow="tram rail_urban rail rail_electric rail_fast ship" speed="27.78" length="0.36" shape="2532.43,5864.29 2532.23,5864.63"/>
    </edge>
    <edge id=":10002573670_0" function="internal">
        <lane id=":10002573670_0_0" index="0" disallow="tram rail_urban rail rail_electric rail_fast ship" speed="22.22" length="2.35" shape="2529.18,5857.24 2531.02,5858.81"/>
        <lane id=":10002573670_0_1" index="1" disallow="tram rail_urban rail rail_electric rail_fast ship" speed="22.22" length="2.35" shape="2531.25,5854.80 2532.98,5856.28"/>
    </edge>
    <edge id=":10002573676_0" function="internal">
        <lane id=":10002573676_0_0" index="0" disallow="tram rail_urban rail rail_electric rail_fast ship" speed="27.78" length="0.90" shape="2258.30,6137.97 2259.05,6137.44"/>
        <lane id=":10002573676_0_1" index="1" disallow="tram rail_urban rail rail_electric rail_fast ship" speed="27.78" length="0.90" shape="2256.47,6135.35 2257.19,6134.83"/>
    </edge>
    <edge id=":10002573676_2" function="internal">
        <lane id=":10002573676_2_0" index="0" disallow="tram rail_urban rail rail_electric rail_fast ship" speed="27.78" length="0.83" shape="2253.47,6129.62 2252.80,6130.10"/>
        <lane id=":10002573676_2_1" index="1" disallow="tram rail_urban rail rail_electric rail_fast ship" speed="27.78" length="0.83" shape="2255.33,6132.23 2254.63,6132.72"/>
    </edge>
    <edge id=":10002573679_0" function="internal">
        <lane id=":10002573679_0_0" index="0" disallow="tram rail_urban rail rail_electric rail_fast ship" speed="22.22" length="0.98" shape="2244.78,6130.50 2244.06,6129.83"/>
        <lane id=":10002573679_0_1" index="1" disallow="tram rail_urban rail rail_electric rail_fast ship" speed="22.22" length="0.98" shape="2242.59,6132.83 2241.87,6132.16"/>
    </edge>
    <edge id=":10002573686_0" function="internal">
        <lane id=":10002573686_0_0" index="0" disallow="tram rail_urban rail rail_electric rail_fast ship" speed="22.22" length="1.53" shape="2258.06,6143.31 2256.97,6142.23"/>
        <lane id=":10002573686_0_1" index="1" disallow="tram rail_urban rail rail_electric rail_fast ship" speed="22.22" length="1.53" shape="2255.81,6145.58 2254.72,6144.50"/>
    </edge>
    <edge id=":10002573704_0" function="internal">
        <lane id=":10002573704_0_0" index="0" disallow="tram rail_urban rail rail_electric rail_fast ship" speed="27.78" length="0.10" shape="1865.70,6482.41 1865.76,6482.35"/>
    </edge>
    <edge id=":10002573704_1" function="internal">
        <lane id=":10002573704_1_0" index="0" disallow="tram rail_urban rail rail_electric rail_fast ship" speed="27.78" length="0.17" shape="1860.89,6478.19 1861.06,6478.00"/>
        <lane id=":10002573704_1_1" index="1" disallow="tram rail_urban rail rail_electric rail_fast ship" speed="27.78" length="0.17" shape="1863.32,6480.27 1863.38,6480.21"/>
    </edge>
    <edge id=":10002573706_0" function="internal">
        <lane id=":10002573706_0_0" index="0" disallow="tram rail_urban rail rail_electric rail_fast ship" speed="22.22" length="0.31" shape="1887.47,6477.78 1887.23,6477.60"/>
    </edge>
    <edge id=":10002573706_1" function="internal">
        <lane id=":10002573706_1_0" index="0" disallow="tram rail_urban rail rail_electric rail_fast ship" speed="22.22" length="0.29" shape="1889.17,6475.06 1889.41,6475.24"/>
    </edge>
    <edge id=":10002573708_0" function="internal">
        <lane id=":10002573708_0_0" index="0" disallow="tram rail_urban rail rail_electric rail_fast ship" speed="27.78" length="0.34" shape="1890.50,6464.92 1890.21,6465.15"/>
        <lane id=":10002573708_0_1" index="1" disallow="tram rail_urban rail rail_electric rail_fast ship" speed="27.78" length="0.34" shape="1888.49,6462.43 1888.25,6462.62"/>
    </edge>
    <edge id=":10002573708_2" function="internal">
        <lane id=":10002573708_2_0" index="0" disallow="tram rail_urban rail rail_electric rail_fast ship" speed="27.78" length="0.24" shape="1884.32,6457.57 1884.49,6457.44"/>
        <lane id=":10002573708_2_1" index="1" disallow="tram rail_urban rail rail_electric rail_fast ship" speed="27.78" length="0.24" shape="1886.28,6460.10 1886.49,6459.93"/>
    </edge>
    <edge id=":10004186214_0" function="internal">
        <lane id=":10004186214_0_0" index="0" disallow="tram rail_urban rail rail_electric rail_fast ship" speed="27.78" length="0.30" shape="3460.72,4684.21 3460.56,4684.46"/>
        <lane id=":10004186214_0_1" index="1" disallow="tram rail_urban rail rail_electric rail_fast ship" speed="27.78" length="0.30" shape="3458.02,4682.49 3457.86,4682.75"/>
    </edge>
    <edge id=":10004186214_2" function="internal">
        <lane id=":10004186214_2_0" index="0" disallow="tram rail_urban rail rail_electric rail_fast ship" speed="27.78" length="0.30" shape="3452.46,4679.31 3452.62,4679.05"/>
        <lane id=":10004186214_2_1" index="1" disallow="tram rail_urban rail rail_electric rail_fast ship" speed="27.78" length="0.30" shape="3455.16,4681.03 3455.32,4680.77"/>
    </edge>
    <edge id=":10004211618_0" function="internal">
        <lane id=":10004211618_0_0" index="0" disallow="tram rail_urban rail rail_electric rail_fast ship" speed="27.78" length="0.30" shape="3449.86,4701.36 3449.71,4701.61"/>
        <lane id=":10004211618_0_1" index="1" disallow="tram rail_urban rail rail_electric rail_fast ship" speed="27.78" length="0.30" shape="3447.15,4699.66 3447.00,4699.91"/>
    </edge>
    <edge id=":10004211618_2" function="internal">
        <lane id=":10004211618_2_0" index="0" disallow="tram rail_urban rail rail_electric rail_fast ship" speed="27.78" length="0.30" shape="3441.57,4696.50 3441.74,4696.25"/>
        <lane id=":10004211618_2_1" index="1" disallow="tram rail_urban rail rail_electric rail_fast ship" speed="27.78" length="0.30" shape="3444.29,4698.21 3444.45,4697.95"/>
    </edge>
    <edge id=":10004211624_0" function="internal">
        <lane id=":10004211624_0_0" index="0" disallow="tram rail_urban rail rail_electric rail_fast ship" speed="8.33" length="1.77" shape="3387.38,4805.16 3385.93,4804.15"/>
        <lane id=":10004211624_0_1" index="1" disallow="tram rail_urban rail rail_electric rail_fast ship" speed="8.33" length="1.77" shape="3385.55,4807.79 3384.10,4806.78"/>
    </edge>
    <edge id=":10004211626_0" function="internal">
        <lane id=":10004211626_0_0" index="0" disallow="tram rail_urban rail rail_electric rail_fast ship" speed="27.78" length="0.16" shape="3374.02,4817.24 3373.93,4817.37"/>
        <lane id=":10004211626_0_1" index="1" disallow="tram rail_urban rail rail_electric rail_fast ship" speed="27.78" length="0.16" shape="3371.43,4815.37 3371.34,4815.49"/>
    </edge>
    <edge id=":10004211626_2" function="internal">
        <lane id=":10004211626_2_0" index="0" disallow="tram rail_urban rail rail_electric rail_fast ship" speed="27.78" length="0.12" shape="3366.16,4811.73 3366.23,4811.64"/>
        <lane id=":10004211626_2_1" index="1" disallow="tram rail_urban rail rail_electric rail_fast ship" speed="27.78" length="0.12" shape="3368.75,4813.61 3368.82,4813.51"/>
    </edge>
    <edge id=":10004211636_0" function="internal">
        <lane id=":10004211636_0_0" index="0" disallow="tram rail_urban rail rail_electric rail_fast ship" speed="8.33" length="2.08" shape="3378.58,4813.77 3380.30,4814.94"/>
        <lane id=":10004211636_0_1" index="1" disallow="tram rail_urban rail rail_electric rail_fast ship" speed="8.33" length="2.08" shape="3380.40,4811.13 3382.11,4812.31"/>
    </edge>
    <edge id=":10004211648_0" function="internal">
        <lane id=":10004211648_0_0" index="0" disallow="tram rail_urban rail rail_electric rail_fast ship" speed="8.33" length="0.11" shape="3175.02,5090.62 3174.99,5090.66"/>
        <lane id=":10004211648_0_1" index="1" disallow="tram rail_urban rail rail_electric rail_fast ship" speed="8.33" length="0.11" shape="3172.40,5088.78 3172.31,5088.92"/>
    </edge>
    <edge id=":10004211648_2" function="internal">
        <lane id=":10004211648_2_0" index="0" disallow="tram rail_urban rail rail_electric rail_fast ship" speed="8.33" length="0.35" shape="3166.94,5085.43 3167.17,5085.09"/>
        <lane id=":10004211648_2_1" index="1" disallow="tram rail_urban rail rail_electric rail_fast ship" speed="8.33" length="0.35" shape="3169.63,5087.17 3169.79,5086.93"/>
    </edge>
    <edge id=":10004211651_0" function="internal">
        <lane id=":10004211651_0_0" index="0" disallow="tram rail_urban rail rail_electric rail_fast ship" speed="8.33" length="0.30" shape="3165.14,5105.55 3164.98,5105.80"/>
        <lane id=":10004211651_0_1" index="1" disallow="tram rail_urban rail rail_electric rail_fast ship" speed="8.33" length="0.30" shape="3162.49,5103.76 3162.32,5104.01"/>
    </edge>
    <edge id=":10004211651_2" function="internal">
        <lane id=":10004211651_2_0" index="0" disallow="tram rail_urban rail rail_electric rail_fast ship" speed="8.33" length="0.30" shape="3157.02,5100.43 3157.18,5100.18"/>
        <lane id=":10004211651_2_1" index="1" disallow="tram rail_urban rail rail_electric rail_fast ship" speed="8.33" length="0.30" shape="3159.67,5102.22 3159.84,5101.97"/>
    </edge>
    <edge id=":10004211658_0" function="internal">
        <lane id=":10004211658_0_0" index="0" disallow="tram rail_urban rail rail_electric rail_fast ship" speed="22.22" length="1.27" shape="3171.18,5102.14 3172.16,5102.95"/>
        <lane id=":10004211658_0_1" index="1" disallow="tram rail_urban rail rail_electric rail_fast ship" speed="22.22" length="1.27" shape="3173.21,5099.67 3174.20,5100.48"/>
    </edge>
    <edge id=":10004211660_0" function="internal">
        <lane id=":10004211660_0_0" index="0" disallow="tram rail_urban rail rail_electric rail_fast ship" speed="22.22" length="1.67" shape="3157.96,5091.26 3159.25,5092.32"/>
        <lane id=":10004211660_0_1" index="1" disallow="tram rail_urban rail rail_electric rail_fast ship" speed="22.22" length="1.67" shape="3159.99,5088.79 3161.28,5089.85"/>
    </edge>
    <edge id=":10004211668_0" function="internal">
        <lane id=":10004211668_0_0" index="0" disallow="tram rail_urban rail rail_electric rail_fast ship" speed="27.78" length="0.10" shape="3050.31,5264.26 3050.31,5264.26"/>
        <lane id=":10004211668_0_1" index="1" disallow="tram rail_urban rail rail_electric rail_fast ship" speed="27.78" length="0.10" shape="3047.84,5262.23 3047.84,5262.23"/>
    </edge>
    <edge id=":10004211668_2" function="internal">
        <lane id=":10004211668_2_0" index="0" disallow="tram rail_urban rail rail_electric rail_fast ship" speed="27.78" length="0.10" shape="3042.89,5258.16 3042.89,5258.16"/>
        <lane id=":10004211668_2_1" index="1" disallow="tram rail_urban rail rail_electric rail_fast ship" speed="27.78" length="0.10" shape="3045.36,5260.19 3045.36,5260.19"/>
    </edge>
    <edge id=":10004211671_0" function="internal">
        <lane id=":10004211671_0_0" index="0" disallow="tram rail_urban rail rail_electric rail_fast ship" speed="27.78" length="1.00" shape="3040.71,5275.67 3041.36,5274.92"/>
        <lane id=":10004211671_0_1" index="1" disallow="tram rail_urban rail rail_electric rail_fast ship" speed="27.78" length="1.00" shape="3038.29,5273.57 3038.95,5272.81"/>
    </edge>
    <edge id=":10004211671_2" function="internal">
        <lane id=":10004211671_2_0" index="0" disallow="tram rail_urban rail rail_electric rail_fast ship" speed="27.78" length="1.02" shape="3034.12,5268.61 3033.45,5269.38"/>
        <lane id=":10004211671_2_1" index="1" disallow="tram rail_urban rail rail_electric rail_fast ship" speed="27.78" length="1.02" shape="3036.54,5270.71 3035.87,5271.48"/>
    </edge>
    <edge id=":10004211675_0" function="internal">
        <lane id=":10004211675_0_0" index="0" disallow="tram rail_urban rail rail_electric rail_fast ship" speed="27.78" length="2.92" shape="3047.72,5271.45 3045.50,5269.56"/>
        <lane id=":10004211675_0_1" index="1" disallow="tram rail_urban rail rail_electric rail_fast ship" speed="27.78" length="2.92" shape="3045.65,5273.89 3043.42,5271.99"/>
    </edge>
    <edge id=":10004211678_0" function="internal">
        <lane id=":10004211678_0_0" index="0" disallow="tram rail_urban rail rail_electric rail_fast ship" speed="22.22" length="0.58" shape="3035.15,5260.69 3034.71,5260.31"/>
        <lane id=":10004211678_0_1" index="1" disallow="tram rail_urban rail rail_electric rail_fast ship" speed="22.22" length="0.58" shape="3033.06,5263.12 3032.62,5262.74"/>
    </edge>
    <edge id=":10004211693_0" function="internal">
        <lane id=":10004211693_0_0" index="0" disallow="tram rail_urban rail rail_electric rail_fast ship" speed="27.78" length="0.30" shape="2843.20,5485.13 2843.02,5485.37"/>
        <lane id=":10004211693_0_1" index="1" disallow="tram rail_urban rail rail_electric rail_fast ship" speed="27.78" length="0.30" shape="2840.63,5483.22 2840.45,5483.46"/>
    </edge>
    <edge id=":10004211693_2" function="internal">
        <lane id=":10004211693_2_0" index="0" disallow="tram rail_urban rail rail_electric rail_fast ship" speed="27.78" length="0.30" shape="2835.32,5479.63 2835.50,5479.39"/>
        <lane id=":10004211693_2_1" index="1" disallow="tram rail_urban rail rail_electric rail_fast ship" speed="27.78" length="0.30" shape="2837.89,5481.54 2838.07,5481.30"/>
    </edge>
    <edge id=":10004211698_0" function="internal">
        <lane id=":10004211698_0_0" index="0" disallow="tram rail_urban rail rail_electric rail_fast ship" speed="27.78" length="0.30" shape="2831.09,5500.25 2830.89,5500.48"/>
        <lane id=":10004211698_0_1" index="1" disallow="tram rail_urban rail rail_electric rail_fast ship" speed="27.78" length="0.30" shape="2828.68,5498.15 2828.48,5498.38"/>
    </edge>
    <edge id=":10004211698_2" function="internal">
        <lane id=":10004211698_2_0" index="0" disallow="tram rail_urban rail rail_electric rail_fast ship" speed="27.78" length="0.31" shape="2823.65,5494.18 2823.85,5493.95"/>
        <lane id=":10004211698_2_1" index="1" disallow="tram rail_urban rail rail_electric rail_fast ship" speed="27.78" length="0.31" shape="2826.06,5496.28 2826.26,5496.05"/>
    </edge>
    <edge id=":10005349492_0" function="internal">
        <lane id=":10005349492_0_0" index="0" disallow="tram rail_urban rail rail_electric rail_fast ship" speed="27.78" length="1.02" shape="4026.52,5258.74 4027.26,5258.03"/>
        <lane id=":10005349492_0_1" index="1" disallow="tram rail_urban rail rail_electric rail_fast ship" speed="27.78" length="1.02" shape="4024.31,5256.43 4025.04,5255.72"/>
        <lane id=":10005349492_0_2" index="2" disallow="tram rail_urban rail rail_electric rail_fast ship" speed="27.78" length="1.02" shape="4022.10,5254.11 4022.83,5253.41"/>
    </edge>
    <edge id=":10005349496_0" function="internal">
        <lane id=":10005349496_0_0" index="0" disallow="tram rail_urban rail rail_electric rail_fast ship" speed="27.78" length="1.49" shape="4002.02,5235.76 4001.03,5236.87"/>
        <lane id=":10005349496_0_1" index="1" disallow="tram rail_urban rail rail_electric rail_fast ship" speed="27.78" length="1.49" shape="4004.40,5237.90 4003.41,5239.01"/>
        <lane id=":10005349496_0_2" index="2" disallow="tram rail_urban rail rail_electric rail_fast ship" speed="27.78" length="1.49" shape="4006.79,5240.04 4005.79,5241.14"/>
    </edge>
    <edge id=":10005349499_0" function="internal">
        <lane id=":10005349499_0_0" index="0" disallow="tram rail_urban rail rail_electric rail_fast ship" speed="27.78" length="0.71" shape="4017.84,5266.91 4018.40,5266.39"/>
        <lane id=":10005349499_0_1" index="1" disallow="tram rail_urban rail rail_electric rail_fast ship" speed="27.78" length="0.71" shape="4015.66,5264.57 4016.18,5264.09"/>
        <lane id=":10005349499_0_2" index="2" disallow="tram rail_urban rail rail_electric rail_fast ship" speed="27.78" length="0.71" shape="4013.47,5262.23 4013.96,5261.78"/>
    </edge>
    <edge id=":10005349503_0" function="internal">
        <lane id=":10005349503_0_0" index="0" disallow="tram rail_urban rail rail_electric rail_fast ship" speed="27.78" length="2.67" shape="3992.84,5248.63 3991.03,5250.59"/>
        <lane id=":10005349503_0_1" index="1" disallow="tram rail_urban rail rail_electric rail_fast ship" speed="27.78" length="2.67" shape="3995.20,5250.79 3993.39,5252.76"/>
    </edge>
    <edge id=":10005349511_0" function="internal">
        <lane id=":10005349511_0_0" index="0" disallow="tram rail_urban rail rail_electric rail_fast ship" speed="22.22" length="1.19" shape="3711.08,5586.51 3711.60,5587.58"/>
    </edge>
    <edge id=":10005349511_1" function="internal">
        <lane id=":10005349511_1_0" index="0" disallow="tram rail_urban rail rail_electric rail_fast ship" speed="22.22" length="1.20" shape="3714.48,5586.19 3713.96,5585.11"/>
    </edge>
    <edge id=":10005349512_0" function="internal">
        <lane id=":10005349512_0_0" index="0" disallow="tram rail_urban rail rail_electric rail_fast ship" speed="27.78" length="1.57" shape="3715.60,5576.53 3716.64,5575.55"/>
        <lane id=":10005349512_0_1" index="1" disallow="tram rail_urban rail rail_electric rail_fast ship" speed="27.78" length="1.57" shape="3713.28,5574.34 3714.42,5573.25"/>
        <lane id=":10005349512_0_2" index="2" disallow="tram rail_urban rail rail_electric rail_fast ship" speed="27.78" length="1.57" shape="3710.95,5572.14 3712.20,5570.95"/>
    </edge>
    <edge id=":10005349516_0" function="internal">
        <lane id=":10005349516_0_0" index="0" disallow="tram rail_urban rail rail_electric rail_fast ship" speed="27.78" length="2.43" shape="3701.88,5546.87 3700.21,5548.61"/>
        <lane id=":10005349516_0_1" index="1" disallow="tram rail_urban rail rail_electric rail_fast ship" speed="27.78" length="2.43" shape="3704.19,5549.09 3702.49,5550.86"/>
    </edge>
    <edge id=":10005349822_0" function="internal">
        <lane id=":10005349822_0_0" index="0" disallow="tram rail_urban rail rail_electric rail_fast ship" speed="22.22" length="1.95" shape="3698.21,5547.41 3697.52,5545.58"/>
        <lane id=":10005349822_0_1" index="1" disallow="tram rail_urban rail rail_electric rail_fast ship" speed="22.22" length="1.95" shape="3695.22,5548.53 3694.53,5546.71"/>
    </edge>
    <edge id=":10006401120_0" function="internal">
        <lane id=":10006401120_0_0" index="0" disallow="tram rail_urban rail rail_electric rail_fast ship" speed="8.33" length="0.97" shape="4886.67,4381.35 4887.34,4380.65"/>
    </edge>
    <edge id=":10006401120_1" function="internal">
        <lane id=":10006401120_1_0" index="0" disallow="tram rail_urban rail rail_electric rail_fast ship" speed="8.33" length="1.02" shape="4882.75,4376.19 4882.03,4376.94"/>
        <lane id=":10006401120_1_1" index="1" disallow="tram rail_urban rail rail_electric rail_fast ship" speed="8.33" length="1.02" shape="4885.04,4378.42 4884.35,4379.15"/>
    </edge>
    <edge id=":10007495412_0" function="internal">
        <lane id=":10007495412_0_0" index="0" disallow="tram rail_urban rail rail_electric rail_fast ship" speed="8.33" length="0.36" shape="5867.28,4588.47 5867.52,4588.20"/>
        <lane id=":10007495412_0_1" index="1" disallow="tram rail_urban rail rail_electric rail_fast ship" speed="8.33" length="0.36" shape="5864.90,4586.34 5865.13,4586.08"/>
    </edge>
    <edge id=":10007495413_0" function="internal">
        <lane id=":10007495413_0_0" index="0" disallow="tram rail_urban rail rail_electric rail_fast ship" speed="8.33" length="0.15" shape="5857.29,4579.00 5857.19,4579.12"/>
        <lane id=":10007495413_0_1" index="1" disallow="tram rail_urban rail rail_electric rail_fast ship" speed="8.33" length="0.15" shape="5859.68,4581.13 5859.59,4581.24"/>
    </edge>
    <edge id=":10007495415_0" function="internal">
        <lane id=":10007495415_0_0" index="0" disallow="tram rail_urban rail rail_electric rail_fast ship" speed="8.33" length="1.62" shape="5867.23,4594.63 5866.04,4593.71"/>
        <lane id=":10007495415_0_1" index="1" disallow="tram rail_urban rail rail_electric rail_fast ship" speed="8.33" length="1.62" shape="5865.24,4597.14 5863.89,4596.08"/>
    </edge>
    <edge id=":10007495416_0" function="internal">
        <lane id=":10007495416_0_0" index="0" disallow="tram rail_urban rail rail_electric rail_fast ship" speed="8.33" length="0.30" shape="5855.83,4601.25 5855.63,4601.47"/>
        <lane id=":10007495416_0_1" index="1" disallow="tram rail_urban rail rail_electric rail_fast ship" speed="8.33" length="0.30" shape="5853.45,4599.11 5853.25,4599.33"/>
    </edge>
    <edge id=":10007498617_0" function="internal">
        <lane id=":10007498617_0_0" index="0" disallow="tram rail_urban rail rail_electric rail_fast ship" speed="8.33" length="0.10" shape="5845.42,4592.21 5845.42,4592.21"/>
        <lane id=":10007498617_0_1" index="1" disallow="tram rail_urban rail rail_electric rail_fast ship" speed="8.33" length="0.10" shape="5847.80,4594.35 5847.80,4594.35"/>
    </edge>
    <edge id=":10007498622_0" function="internal">
        <lane id=":10007498622_0_0" index="0" disallow="tram rail_urban rail rail_electric rail_fast ship" speed="8.33" length="0.54" shape="5850.42,4580.06 5850.02,4579.69"/>
        <lane id=":10007498622_0_1" index="1" disallow="tram rail_urban rail rail_electric rail_fast ship" speed="8.33" length="0.54" shape="5848.29,4582.44 5847.89,4582.08"/>
    </edge>
    <edge id=":10007498627_0" function="internal">
        <lane id=":10007498627_0_0" index="0" disallow="tram rail_urban rail rail_electric rail_fast ship" speed="8.33" length="0.13" shape="5550.47,4940.63 5550.39,4940.71"/>
        <lane id=":10007498627_0_1" index="1" disallow="tram rail_urban rail rail_electric rail_fast ship" speed="8.33" length="0.13" shape="5548.09,4938.49 5547.98,4938.61"/>
    </edge>
    <edge id=":10007498628_0" function="internal">
        <lane id=":10007498628_0_0" index="0" disallow="tram rail_urban rail rail_electric rail_fast ship" speed="8.33" length="0.35" shape="5540.20,4931.60 5539.97,4931.86"/>
        <lane id=":10007498628_0_1" index="1" disallow="tram rail_urban rail rail_electric rail_fast ship" speed="8.33" length="0.35" shape="5542.59,4933.74 5542.35,4934.00"/>
    </edge>
    <edge id=":10007498632_0" function="internal">
        <lane id=":10007498632_0_0" index="0" disallow="tram rail_urban rail rail_electric rail_fast ship" speed="8.33" length="0.10" shape="5529.41,4933.15 5529.41,4933.15"/>
        <lane id=":10007498632_0_1" index="1" disallow="tram rail_urban rail rail_electric rail_fast ship" speed="8.33" length="0.10" shape="5531.61,4930.83 5531.61,4930.83"/>
    </edge>
    <edge id=":10007498633_0" function="internal">
        <lane id=":10007498633_0_0" index="0" disallow="tram rail_urban rail rail_electric rail_fast ship" speed="8.33" length="0.71" shape="5547.53,4950.09 5548.07,4950.56"/>
        <lane id=":10007498633_0_1" index="1" disallow="tram rail_urban rail rail_electric rail_fast ship" speed="8.33" length="0.71" shape="5549.65,4947.69 5550.19,4948.17"/>
    </edge>
    <edge id=":10007498634_0" function="internal">
        <lane id=":10007498634_0_0" index="0" disallow="tram rail_urban rail rail_electric rail_fast ship" speed="8.33" length="3.69" shape="5530.57,4942.37 5533.03,4939.62"/>
        <lane id=":10007498634_0_1" index="1" disallow="tram rail_urban rail rail_electric rail_fast ship" speed="8.33" length="3.69" shape="5532.95,4944.51 5535.41,4941.76"/>
    </edge>
    <edge id=":10007498635_0" function="internal">
        <lane id=":10007498635_0_0" index="0" disallow="tram rail_urban rail rail_electric rail_fast ship" speed="27.78" length="3.63" shape="5543.11,4948.97 5540.69,4951.67"/>
        <lane id=":10007498635_0_1" index="1" disallow="tram rail_urban rail rail_electric rail_fast ship" speed="27.78" length="3.63" shape="5540.73,4946.83 5538.31,4949.54"/>
    </edge>
    <edge id=":10007498676_0" function="internal">
        <lane id=":10007498676_0_0" index="0" disallow="tram rail_urban rail rail_electric rail_fast ship" speed="27.78" length="0.30" shape="4450.40,6122.20 4450.19,6122.41"/>
        <lane id=":10007498676_0_1" index="1" disallow="tram rail_urban rail rail_electric rail_fast ship" speed="27.78" length="0.30" shape="4448.11,6119.97 4447.90,6120.18"/>
    </edge>
    <edge id=":10007498677_0" function="internal">
        <lane id=":10007498677_0_0" index="0" disallow="tram rail_urban rail rail_electric rail_fast ship" speed="27.78" length="0.30" shape="4439.81,6112.67 4440.02,6112.45"/>
        <lane id=":10007498677_0_1" index="1" disallow="tram rail_urban rail rail_electric rail_fast ship" speed="27.78" length="0.30" shape="4442.12,6114.89 4442.33,6114.67"/>
    </edge>
    <edge id=":10007498685_0" function="internal">
        <lane id=":10007498685_0_0" index="0" disallow="tram rail_urban rail rail_electric rail_fast ship" speed="27.78" length="0.30" shape="4413.14,6140.26 4413.34,6140.05"/>
        <lane id=":10007498685_0_1" index="1" disallow="tram rail_urban rail rail_electric rail_fast ship" speed="27.78" length="0.30" shape="4415.41,6142.51 4415.63,6142.29"/>
    </edge>
    <edge id=":10007498686_0" function="internal">
        <lane id=":10007498686_0_0" index="0" disallow="tram rail_urban rail rail_electric rail_fast ship" speed="27.78" length="0.30" shape="4424.34,6148.81 4424.14,6149.02"/>
        <lane id=":10007498686_0_1" index="1" disallow="tram rail_urban rail rail_electric rail_fast ship" speed="27.78" length="0.30" shape="4422.05,6146.58 4421.84,6146.80"/>
    </edge>
    <edge id=":10007498699_0" function="internal">
        <lane id=":10007498699_0_0" index="0" disallow="tram rail_urban rail rail_electric rail_fast ship" speed="8.33" length="2.54" shape="4084.64,6475.40 4086.63,6476.99"/>
    </edge>
    <edge id=":10007498699_1" function="internal">
        <lane id=":10007498699_1_0" index="0" disallow="tram rail_urban rail rail_electric rail_fast ship" speed="8.33" length="2.54" shape="4088.63,6474.49 4086.64,6472.90"/>
    </edge>
    <edge id=":10010229657_0" function="internal">
        <lane id=":10010229657_0_0" index="0" disallow="tram rail_urban rail rail_electric rail_fast ship" speed="8.33" length="0.30" shape="7075.43,3118.04 7075.28,3118.30"/>
        <lane id=":10010229657_0_1" index="1" disallow="tram rail_urban rail rail_electric rail_fast ship" speed="8.33" length="0.30" shape="7072.67,3116.43 7072.51,3116.69"/>
        <lane id=":10010229657_0_2" index="2" disallow="tram rail_urban rail rail_electric rail_fast ship" speed="8.33" length="0.30" shape="7069.90,3114.82 7069.75,3115.08"/>
    </edge>
    <edge id=":10010229834_0" function="internal">
        <lane id=":10010229834_0_0" index="0" disallow="tram rail_urban rail rail_electric rail_fast ship" speed="27.78" length="0.29" shape="6991.29,3055.83 6991.66,3055.53"/>
        <lane id=":10010229834_0_1" index="1" disallow="tram rail_urban rail rail_electric rail_fast ship" speed="27.78" length="0.29" shape="6993.37,3058.26 6993.60,3058.08"/>
        <lane id=":10010229834_0_2" index="2" disallow="tram rail_urban rail rail_electric rail_fast ship" speed="27.78" length="0.29" shape="6995.45,3060.69 6995.53,3060.63"/>
    </edge>
    <edge id=":10011999541_0" function="internal">
        <lane id=":10011999541_0_0" index="0" disallow="tram rail_urban rail rail_electric rail_fast ship" speed="27.78" length="1.37" shape="5637.21,1719.85 5638.26,1719.06"/>
        <lane id=":10011999541_0_1" index="1" disallow="tram rail_urban rail rail_electric rail_fast ship" speed="27.78" length="1.37" shape="5635.20,1717.36 5636.33,1716.50"/>
    </edge>
    <edge id=":10011999542_0" function="internal">
        <lane id=":10011999542_0_0" index="0" disallow="tram rail_urban rail rail_electric rail_fast ship" speed="27.78" length="1.15" shape="5628.34,1711.46 5629.22,1710.75"/>
        <lane id=":10011999542_0_1" index="1" disallow="tram rail_urban rail rail_electric rail_fast ship" speed="27.78" length="1.15" shape="5626.31,1709.00 5627.19,1708.27"/>
        <lane id=":10011999542_0_2" index="2" disallow="tram rail_urban rail rail_electric rail_fast ship" speed="27.78" length="1.15" shape="5624.27,1706.53 5625.17,1705.79"/>
    </edge>
    <edge id=":10011999549_0" function="internal">
        <lane id=":10011999549_0_0" index="0" disallow="tram rail_urban rail rail_electric rail_fast ship" speed="27.78" length="0.94" shape="5873.06,2016.38 5872.46,2015.64"/>
        <lane id=":10011999549_0_1" index="1" disallow="tram rail_urban rail rail_electric rail_fast ship" speed="27.78" length="0.94" shape="5870.57,2018.39 5869.98,2017.67"/>
    </edge>
    <edge id=":10011999550_0" function="internal">
        <lane id=":10011999550_0_0" index="0" disallow="tram rail_urban rail rail_electric rail_fast ship" speed="27.78" length="1.20" shape="5855.24,2029.66 5855.99,2030.59"/>
        <lane id=":10011999550_0_1" index="1" disallow="tram rail_urban rail rail_electric rail_fast ship" speed="27.78" length="1.20" shape="5857.73,2027.65 5858.49,2028.59"/>
    </edge>
    <edge id=":10011999552_0" function="internal">
        <lane id=":10011999552_0_0" index="0" disallow="tram rail_urban rail rail_electric rail_fast ship" speed="8.33" length="0.30" shape="5852.66,2037.25 5852.89,2037.06"/>
        <lane id=":10011999552_0_1" index="1" disallow="tram rail_urban rail rail_electric rail_fast ship" speed="8.33" length="0.30" shape="5854.67,2039.74 5854.90,2039.55"/>
    </edge>
    <edge id=":10011999553_0" function="internal">
        <lane id=":10011999553_0_0" index="0" disallow="tram rail_urban rail rail_electric rail_fast ship" speed="8.33" length="0.30" shape="5861.08,2046.79 5860.85,2046.98"/>
        <lane id=":10011999553_0_1" index="1" disallow="tram rail_urban rail rail_electric rail_fast ship" speed="8.33" length="0.30" shape="5859.03,2044.32 5858.80,2044.51"/>
    </edge>
    <edge id=":10011999558_0" function="internal">
        <lane id=":10011999558_0_0" index="0" disallow="tram rail_urban rail rail_electric rail_fast ship" speed="8.33" length="0.11" shape="5887.82,2025.49 5887.91,2025.42"/>
        <lane id=":10011999558_0_1" index="1" disallow="tram rail_urban rail rail_electric rail_fast ship" speed="8.33" length="0.11" shape="5885.88,2022.95 5885.97,2022.88"/>
    </edge>
    <edge id=":10011999559_0" function="internal">
        <lane id=":10011999559_0_0" index="0" disallow="tram rail_urban rail rail_electric rail_fast ship" speed="8.33" length="0.15" shape="5879.74,2015.74 5879.86,2015.65"/>
        <lane id=":10011999559_0_1" index="1" disallow="tram rail_urban rail rail_electric rail_fast ship" speed="8.33" length="0.15" shape="5881.70,2018.26 5881.82,2018.17"/>
    </edge>
    <edge id=":10011999565_0" function="internal">
        <lane id=":10011999565_0_0" index="0" disallow="pedestrian tram rail_urban rail rail_electric rail_fast ship" speed="8.33" length="0.93" shape="6167.26,2341.11 6166.52,2341.68"/>
        <lane id=":10011999565_0_1" index="1" disallow="pedestrian tram rail_urban rail rail_electric rail_fast ship" speed="8.33" length="0.93" shape="6169.22,2343.64 6168.49,2344.20"/>
        <lane id=":10011999565_0_2" index="2" disallow="pedestrian tram rail_urban rail rail_electric rail_fast ship" speed="8.33" length="0.93" shape="6171.18,2346.17 6170.45,2346.73"/>
        <lane id=":10011999565_0_3" index="3" disallow="pedestrian tram rail_urban rail rail_electric rail_fast ship" speed="8.33" length="0.93" shape="6173.14,2348.70 6172.41,2349.26"/>
    </edge>
    <edge id=":10011999566_0" function="internal">
        <lane id=":10011999566_0_0" index="0" disallow="tram rail_urban rail rail_electric rail_fast ship" speed="11.11" length="0.10" shape="6176.28,2359.23 6176.28,2359.23"/>
        <lane id=":10011999566_0_1" index="1" disallow="tram rail_urban rail rail_electric rail_fast ship" speed="11.11" length="0.10" shape="6173.86,2361.33 6173.86,2361.33"/>
    </edge>
    <edge id=":10011999567_0" function="internal">
        <lane id=":10011999567_0_0" index="0" disallow="tram rail_urban rail rail_electric rail_fast ship" speed="11.11" length="0.30" shape="6164.56,2369.24 6164.37,2369.01"/>
        <lane id=":10011999567_0_1" index="1" disallow="tram rail_urban rail rail_electric rail_fast ship" speed="11.11" length="0.30" shape="6167.01,2367.17 6166.82,2366.94"/>
    </edge>
    <edge id=":10011999569_0" function="internal">
        <lane id=":10011999569_0_0" index="0" disallow="tram rail_urban rail rail_electric rail_fast ship" speed="22.22" length="4.97" shape="6145.24,2356.07 6140.61,2357.90"/>
        <lane id=":10011999569_0_1" index="1" disallow="tram rail_urban rail rail_electric rail_fast ship" speed="22.22" length="4.97" shape="6146.41,2359.05 6141.79,2360.87"/>
        <lane id=":10011999569_0_2" index="2" disallow="tram rail_urban rail rail_electric rail_fast ship" speed="22.22" length="4.97" shape="6147.58,2362.03 6142.96,2363.85"/>
    </edge>
    <edge id=":10011999570_0" function="internal">
        <lane id=":10011999570_0_0" index="0" disallow="tram rail_urban rail rail_electric rail_fast ship" speed="22.22" length="4.88" shape="6150.14,2369.08 6152.81,2365.00"/>
        <lane id=":10011999570_0_1" index="1" disallow="tram rail_urban rail rail_electric rail_fast ship" speed="22.22" length="4.88" shape="6147.46,2367.32 6150.14,2363.25"/>
        <lane id=":10011999570_0_2" index="2" disallow="tram rail_urban rail rail_electric rail_fast ship" speed="22.22" length="4.88" shape="6144.79,2365.56 6147.46,2361.49"/>
    </edge>
    <edge id=":10026960454_0" function="internal">
        <lane id=":10026960454_0_0" index="0" disallow="tram rail_urban rail rail_electric rail_fast ship" speed="8.33" length="0.30" shape="5715.45,2167.55 5715.22,2167.74"/>
        <lane id=":10026960454_0_1" index="1" disallow="tram rail_urban rail rail_electric rail_fast ship" speed="8.33" length="0.30" shape="5713.40,2165.08 5713.17,2165.28"/>
    </edge>
    <edge id=":10026960455_0" function="internal">
        <lane id=":10026960455_0_0" index="0" disallow="tram rail_urban rail rail_electric rail_fast ship" speed="8.33" length="0.30" shape="5705.46,2156.33 5705.69,2156.14"/>
        <lane id=":10026960455_0_1" index="1" disallow="tram rail_urban rail rail_electric rail_fast ship" speed="8.33" length="0.30" shape="5707.47,2158.82 5707.70,2158.63"/>
    </edge>
    <edge id=":10027055655_0" function="internal">
        <lane id=":10027055655_0_0" index="0" disallow="tram rail_urban rail rail_electric rail_fast ship" speed="8.33" length="0.27" shape="7187.61,3479.02 7187.46,3479.25"/>
        <lane id=":10027055655_0_1" index="1" disallow="tram rail_urban rail rail_electric rail_fast ship" speed="8.33" length="0.27" shape="7184.90,3477.30 7184.76,3477.52"/>
    </edge>
    <edge id=":10027055659_0" function="internal">
        <lane id=":10027055659_0_0" index="0" disallow="tram rail_urban rail rail_electric rail_fast ship" speed="8.33" length="0.30" shape="7195.07,3470.41 7194.91,3470.67"/>
        <lane id=":10027055659_0_1" index="1" disallow="tram rail_urban rail rail_electric rail_fast ship" speed="8.33" length="0.30" shape="7192.39,3468.66 7192.23,3468.92"/>
        <lane id=":10027055659_0_2" index="2" disallow="tram rail_urban rail rail_electric rail_fast ship" speed="8.33" length="0.30" shape="7189.71,3466.92 7189.55,3467.17"/>
    </edge>
    <edge id=":10027055661_0" function="internal">
        <lane id=":10027055661_0_0" index="0" disallow="tram rail_urban rail rail_electric rail_fast ship" speed="8.33" length="0.30" shape="7162.36,3450.21 7162.52,3449.96"/>
        <lane id=":10027055661_0_1" index="1" disallow="tram rail_urban rail rail_electric rail_fast ship" speed="8.33" length="0.30" shape="7165.04,3451.96 7165.20,3451.70"/>
    </edge>
    <edge id=":10045449579_0" function="internal">
        <lane id=":10045449579_0_0" index="0" disallow="tram rail_urban rail rail_electric rail_fast ship" speed="22.22" length="0.16" shape="2868.37,7185.06 2868.24,7184.96"/>
    </edge>
    <edge id=":10045449579_1" function="internal">
        <lane id=":10045449579_1_0" index="0" disallow="tram rail_urban rail rail_electric rail_fast ship" speed="22.22" length="3.65" shape="2867.36,7180.31 2870.29,7182.50"/>
    </edge>
    <edge id=":10045449581_0" function="internal">
        <lane id=":10045449581_0_0" index="0" disallow="tram rail_urban rail rail_electric rail_fast ship" speed="22.22" length="0.31" shape="2871.21,7171.66 2871.03,7171.91"/>
    </edge>
    <edge id=":10045449581_1" function="internal">
        <lane id=":10045449581_1_0" index="0" disallow="tram rail_urban rail rail_electric rail_fast ship" speed="22.22" length="0.30" shape="2868.47,7169.99 2868.65,7169.75"/>
    </edge>
    <edge id=":10045449583_0" function="internal">
        <lane id=":10045449583_0_0" index="0" disallow="tram rail_urban rail rail_electric rail_fast ship" speed="22.22" length="0.10" shape="2856.47,7176.45 2856.55,7176.50"/>
    </edge>
    <edge id=":10045449583_1" function="internal">
        <lane id=":10045449583_1_0" index="0" disallow="tram rail_urban rail rail_electric rail_fast ship" speed="22.22" length="0.27" shape="2858.53,7173.98 2858.31,7173.83"/>
    </edge>
    <edge id=":10045480420_0" function="internal">
        <lane id=":10045480420_0_0" index="0" disallow="tram rail_urban rail rail_electric rail_fast ship" speed="22.22" length="0.47" shape="2120.58,6632.51 2120.89,6632.16"/>
    </edge>
    <edge id=":10045480420_1" function="internal">
        <lane id=":10045480420_1_0" index="0" disallow="tram rail_urban rail rail_electric rail_fast ship" speed="22.22" length="0.48" shape="2118.49,6630.04 2118.18,6630.40"/>
    </edge>
    <edge id=":10045517622_0" function="internal">
        <lane id=":10045517622_0_0" index="0" disallow="tram rail_urban rail rail_electric rail_fast ship" speed="22.22" length="0.83" shape="2760.46,5893.15 2761.10,5893.67"/>
    </edge>
    <edge id=":10045517622_1" function="internal">
        <lane id=":10045517622_1_0" index="0" disallow="tram rail_urban rail rail_electric rail_fast ship" speed="22.22" length="0.81" shape="2763.14,5891.20 2762.51,5890.68"/>
    </edge>
    <edge id=":10045517642_0" function="internal">
        <lane id=":10045517642_0_0" index="0" disallow="tram rail_urban rail rail_electric rail_fast ship" speed="22.22" length="0.34" shape="2750.75,5884.82 2751.00,5885.04"/>
    </edge>
    <edge id=":10045517642_1" function="internal">
        <lane id=":10045517642_1_0" index="0" disallow="tram rail_urban rail rail_electric rail_fast ship" speed="22.22" length="0.34" shape="2753.12,5882.64 2752.87,5882.42"/>
    </edge>
    <edge id=":10047162614_0" function="internal">
        <lane id=":10047162614_0_0" index="0" disallow="tram rail_urban rail rail_electric rail_fast ship" speed="22.22" length="0.60" shape="2754.21,5894.76 2754.58,5894.30"/>
    </edge>
    <edge id=":10047162614_1" function="internal">
        <lane id=":10047162614_1_0" index="0" disallow="tram rail_urban rail rail_electric rail_fast ship" speed="22.22" length="0.60" shape="2752.08,5892.30 2751.71,5892.77"/>
    </edge>
    <edge id=":10060788643_0" function="internal">
        <lane id=":10060788643_0_0" index="0" disallow="tram rail_urban rail rail_electric rail_fast ship" speed="8.33" length="0.30" shape="3262.03,5456.89 3262.25,5457.09"/>
        <lane id=":10060788643_0_1" index="1" disallow="tram rail_urban rail rail_electric rail_fast ship" speed="8.33" length="0.30" shape="3259.89,5459.27 3260.11,5459.47"/>
    </edge>
    <edge id=":10060788646_0" function="internal">
        <lane id=":10060788646_0_0" index="0" disallow="tram rail_urban rail rail_electric rail_fast ship" speed="27.78" length="0.29" shape="3252.45,5448.29 3252.69,5448.50"/>
        <lane id=":10060788646_0_1" index="1" disallow="tram rail_urban rail rail_electric rail_fast ship" speed="27.78" length="0.29" shape="3250.33,5450.68 3250.53,5450.86"/>
    </edge>
    <edge id=":1011992147_0" function="internal">
        <lane id=":1011992147_0_0" index="0" disallow="tram rail_urban rail rail_electric rail_fast ship" speed="12.85" length="12.78" shape="2701.91,4665.04 2698.75,4666.72 2697.17,4668.72 2696.10,4671.32 2694.48,4674.80"/>
        <lane id=":1011992147_0_1" index="1" disallow="tram rail_urban rail rail_electric rail_fast ship" speed="13.09" length="13.29" shape="2701.91,4665.04 2698.25,4666.44 2695.80,4667.75 2693.89,4669.69 2691.84,4672.97"/>
    </edge>
    <edge id=":1011992147_2" function="internal">
        <lane id=":1011992147_2_0" index="0" disallow="tram rail_urban rail rail_electric rail_fast ship" speed="27.78" length="13.49" shape="2701.91,4665.04 2689.28,4669.78"/>
        <lane id=":1011992147_2_1" index="1" disallow="tram rail_urban rail rail_electric rail_fast ship" speed="27.78" length="13.49" shape="2700.78,4662.04 2688.16,4666.79"/>
        <lane id=":1011992147_2_2" index="2" disallow="tram rail_urban rail rail_electric rail_fast ship" speed="27.78" length="13.49" shape="2699.66,4659.04 2687.03,4663.79"/>
    </edge>
    <edge id=":1011992189_0" function="internal">
        <lane id=":1011992189_0_0" index="0" disallow="tram rail_urban rail rail_electric rail_fast ship" speed="22.22" length="13.72" shape="2990.66,4924.51 2981.70,4934.90"/>
    </edge>
    <edge id=":1011992189_1" function="internal">
        <lane id=":1011992189_1_0" index="0" disallow="tram rail_urban rail rail_electric rail_fast ship" speed="3.65" length="4.67" shape="2990.66,4924.51 2989.27,4924.90 2988.40,4924.68 2988.06,4923.85 2988.24,4922.42"/>
    </edge>
    <edge id=":1011992189_2" function="internal">
        <lane id=":1011992189_2_0" index="0" disallow="tram rail_urban rail rail_electric rail_fast ship" speed="6.57" length="8.99" shape="2980.32,4922.99 2982.45,4924.28 2984.49,4924.61 2986.42,4923.99 2988.24,4922.42"/>
    </edge>
    <edge id=":1011992189_3" function="internal">
        <lane id=":1011992189_3_0" index="0" disallow="tram rail_urban rail rail_electric rail_fast ship" speed="7.11" length="11.28" shape="2978.31,4925.48 2981.07,4928.12 2982.55,4930.57 2982.77,4932.83 2981.70,4934.90"/>
    </edge>
    <edge id=":1011992189_4" function="internal">
        <lane id=":1011992189_4_0" index="0" disallow="tram rail_urban rail rail_electric rail_fast ship" speed="22.22" length="13.72" shape="2979.28,4932.81 2988.24,4922.42"/>
    </edge>
    <edge id=":1011992189_5" function="internal">
        <lane id=":1011992189_5_0" index="0" disallow="tram rail_urban rail rail_electric rail_fast ship" speed="3.65" length="4.67" shape="2979.28,4932.81 2980.67,4932.42 2981.54,4932.64 2981.88,4933.47 2981.70,4934.90"/>
    </edge>
    <edge id=":10169729640_0" function="internal">
        <lane id=":10169729640_0_0" index="0" disallow="tram rail_urban rail rail_electric rail_fast ship" speed="27.78" length="0.30" shape="4466.80,6500.05 4466.64,6499.80"/>
        <lane id=":10169729640_0_1" index="1" disallow="tram rail_urban rail rail_electric rail_fast ship" speed="27.78" length="0.30" shape="4469.50,6498.34 4469.34,6498.08"/>
    </edge>
    <edge id=":10169729641_0" function="internal">
        <lane id=":10169729641_0_0" index="0" disallow="tram rail_urban rail rail_electric rail_fast ship" speed="27.78" length="0.30" shape="4475.28,6492.74 4475.44,6492.99"/>
        <lane id=":10169729641_0_1" index="1" disallow="tram rail_urban rail rail_electric rail_fast ship" speed="27.78" length="0.30" shape="4472.58,6494.45 4472.74,6494.70"/>
    </edge>
    <edge id=":10186699327_0" function="internal">
        <lane id=":10186699327_0_0" index="0" disallow="tram rail_urban rail rail_electric rail_fast ship" speed="22.22" length="0.46" shape="5979.95,2512.28 5979.71,2512.47"/>
        <lane id=":10186699327_0_1" index="1" disallow="tram rail_urban rail rail_electric rail_fast ship" speed="22.22" length="0.46" shape="5978.03,2509.72 5977.67,2510.01"/>
        <lane id=":10186699327_0_2" index="2" disallow="tram rail_urban rail rail_electric rail_fast ship" speed="22.22" length="0.46" shape="5976.11,2507.16 5975.63,2507.54"/>
    </edge>
    <edge id=":10186699328_0" function="internal">
        <lane id=":10186699328_0_0" index="0" disallow="tram rail_urban rail rail_electric rail_fast ship" speed="22.22" length="0.30" shape="5952.35,2511.59 5952.60,2511.39"/>
        <lane id=":10186699328_0_1" index="1" disallow="tram rail_urban rail rail_electric rail_fast ship" speed="22.22" length="0.30" shape="5954.38,2514.06 5954.62,2513.88"/>
        <lane id=":10186699328_0_2" index="2" disallow="tram rail_urban rail rail_electric rail_fast ship" speed="22.22" length="0.30" shape="5956.41,2516.54 5956.63,2516.36"/>
    </edge>
    <edge id=":10186699330_0" function="internal">
        <lane id=":10186699330_0_0" index="0" disallow="tram rail_urban rail rail_electric rail_fast ship" speed="22.22" length="0.10" shape="5993.81,2501.18 5993.81,2501.18"/>
        <lane id=":10186699330_0_1" index="1" disallow="tram rail_urban rail rail_electric rail_fast ship" speed="22.22" length="0.10" shape="5991.75,2498.73 5991.75,2498.73"/>
        <lane id=":10186699330_0_2" index="2" disallow="tram rail_urban rail rail_electric rail_fast ship" speed="22.22" length="0.10" shape="5989.69,2496.28 5989.69,2496.28"/>
    </edge>
    <edge id=":10186699331_0" function="internal">
        <lane id=":10186699331_0_0" index="0" disallow="tram rail_urban rail rail_electric rail_fast ship" speed="22.22" length="0.10" shape="5982.24,2487.28 5982.24,2487.28"/>
        <lane id=":10186699331_0_1" index="1" disallow="tram rail_urban rail rail_electric rail_fast ship" speed="22.22" length="0.10" shape="5984.27,2489.75 5984.27,2489.75"/>
        <lane id=":10186699331_0_2" index="2" disallow="tram rail_urban rail rail_electric rail_fast ship" speed="22.22" length="0.10" shape="5986.30,2492.22 5986.30,2492.22"/>
    </edge>
    <edge id=":10186699337_0" function="internal">
        <lane id=":10186699337_0_0" index="0" disallow="tram rail_urban rail rail_electric rail_fast ship" speed="22.22" length="0.30" shape="5828.02,2637.83 5827.78,2638.03"/>
        <lane id=":10186699337_0_1" index="1" disallow="tram rail_urban rail rail_electric rail_fast ship" speed="22.22" length="0.30" shape="5825.99,2635.36 5825.75,2635.56"/>
        <lane id=":10186699337_0_2" index="2" disallow="tram rail_urban rail rail_electric rail_fast ship" speed="22.22" length="0.30" shape="5823.95,2632.90 5823.72,2633.08"/>
    </edge>
    <edge id=":10186699338_0" function="internal">
        <lane id=":10186699338_0_0" index="0" disallow="tram rail_urban rail rail_electric rail_fast ship" speed="22.22" length="0.30" shape="5816.46,2623.10 5816.70,2622.90"/>
        <lane id=":10186699338_0_1" index="1" disallow="tram rail_urban rail rail_electric rail_fast ship" speed="22.22" length="0.30" shape="5818.49,2625.57 5818.73,2625.37"/>
        <lane id=":10186699338_0_2" index="2" disallow="tram rail_urban rail rail_electric rail_fast ship" speed="22.22" length="0.30" shape="5820.53,2628.03 5820.76,2627.85"/>
    </edge>
    <edge id=":10207936446_0" function="internal">
        <lane id=":10207936446_0_0" index="0" disallow="tram rail_urban rail rail_electric rail_fast ship" speed="8.33" length="0.10" shape="5165.39,4605.73 5165.45,4605.79"/>
        <lane id=":10207936446_0_1" index="1" disallow="tram rail_urban rail rail_electric rail_fast ship" speed="8.33" length="0.10" shape="5167.54,4603.37 5167.59,4603.41"/>
    </edge>
    <edge id=":10207936449_0" function="internal">
        <lane id=":10207936449_0_0" index="0" disallow="tram rail_urban rail rail_electric rail_fast ship" speed="8.33" length="0.41" shape="5175.38,4614.80 5175.69,4615.08"/>
        <lane id=":10207936449_0_1" index="1" disallow="tram rail_urban rail rail_electric rail_fast ship" speed="8.33" length="0.41" shape="5177.52,4612.42 5177.83,4612.70"/>
    </edge>
    <edge id=":10207936471_0" function="internal">
        <lane id=":10207936471_0_0" index="0" disallow="tram rail_urban rail rail_electric rail_fast ship" speed="22.22" length="1.86" shape="5175.26,4607.96 5176.51,4606.57"/>
        <lane id=":10207936471_0_1" index="1" disallow="tram rail_urban rail rail_electric rail_fast ship" speed="22.22" length="1.86" shape="5172.88,4605.82 5174.13,4604.43"/>
    </edge>
    <edge id=":10234458181_0" function="internal">
        <lane id=":10234458181_0_0" index="0" disallow="tram rail_urban rail rail_electric rail_fast ship" speed="8.33" length="0.75" shape="6297.25,4981.76 6296.69,4981.26"/>
        <lane id=":10234458181_0_1" index="1" disallow="tram rail_urban rail rail_electric rail_fast ship" speed="8.33" length="0.75" shape="6295.12,4984.15 6294.56,4983.65"/>
    </edge>
    <edge id=":10234458206_0" function="internal">
        <lane id=":10234458206_0_0" index="0" disallow="tram rail_urban rail rail_electric rail_fast ship" speed="8.33" length="2.06" shape="6303.90,4985.14 6305.28,4983.60"/>
        <lane id=":10234458206_0_1" index="1" disallow="tram rail_urban rail rail_electric rail_fast ship" speed="8.33" length="2.06" shape="6301.52,4983.01 6302.89,4981.47"/>
    </edge>
    <edge id=":10241140288_0" function="internal">
        <lane id=":10241140288_0_0" index="0" disallow="tram rail_urban rail rail_electric rail_fast ship" speed="22.22" length="0.10" shape="5107.21,6344.74 5107.21,6344.74"/>
        <lane id=":10241140288_0_1" index="1" disallow="tram rail_urban rail rail_electric rail_fast ship" speed="22.22" length="0.10" shape="5109.79,6342.84 5109.79,6342.84"/>
    </edge>
    <edge id=":10241140289_0" function="internal">
        <lane id=":10241140289_0_0" index="0" disallow="tram rail_urban rail rail_electric rail_fast ship" speed="22.22" length="0.10" shape="5117.93,6335.55 5117.93,6335.55"/>
        <lane id=":10241140289_0_1" index="1" disallow="tram rail_urban rail rail_electric rail_fast ship" speed="22.22" length="0.10" shape="5115.59,6337.73 5115.59,6337.73"/>
    </edge>
    <edge id=":10241140305_0" function="internal">
        <lane id=":10241140305_0_0" index="0" disallow="tram rail_urban rail rail_electric rail_fast ship" speed="22.22" length="0.30" shape="4609.19,6317.78 4608.90,6317.86"/>
    </edge>
    <edge id=":10241140305_1" function="internal">
        <lane id=":10241140305_1_0" index="0" disallow="tram rail_urban rail rail_electric rail_fast ship" speed="22.22" length="0.30" shape="4608.11,6314.76 4608.40,6314.68"/>
    </edge>
    <edge id=":10241140308_0" function="internal">
        <lane id=":10241140308_0_0" index="0" disallow="tram rail_urban rail rail_electric rail_fast ship" speed="22.22" length="0.27" shape="4613.05,6307.75 4613.21,6307.97"/>
    </edge>
    <edge id=":10241140308_1" function="internal">
        <lane id=":10241140308_1_0" index="0" disallow="tram rail_urban rail rail_electric rail_fast ship" speed="22.22" length="0.25" shape="4615.77,6306.05 4615.62,6305.85"/>
    </edge>
    <edge id=":10241144413_0" function="internal">
        <lane id=":10241144413_0_0" index="0" disallow="tram rail_urban rail rail_electric rail_fast ship" speed="22.22" length="0.44" shape="4622.79,6320.78 4623.06,6321.13"/>
    </edge>
    <edge id=":10241144413_1" function="internal">
        <lane id=":10241144413_1_0" index="0" disallow="tram rail_urban rail rail_electric rail_fast ship" speed="22.22" length="0.44" shape="4625.61,6319.21 4625.35,6318.86"/>
    </edge>
    <edge id=":10289475643_0" function="internal">
        <lane id=":10289475643_0_0" index="0" disallow="tram rail_urban rail rail_electric rail_fast ship" speed="22.22" length="0.30" shape="2018.20,5302.30 2017.99,5302.08"/>
        <lane id=":10289475643_0_1" index="1" disallow="tram rail_urban rail rail_electric rail_fast ship" speed="22.22" length="0.30" shape="2020.47,5300.04 2020.26,5299.83"/>
    </edge>
    <edge id=":1051863450_0" function="internal">
        <lane id=":1051863450_0_0" index="0" disallow="tram rail_urban rail rail_electric rail_fast ship" speed="22.22" length="0.30" shape="5809.66,2628.71 5809.88,2628.53"/>
        <lane id=":1051863450_0_1" index="1" disallow="tram rail_urban rail rail_electric rail_fast ship" speed="22.22" length="0.30" shape="5811.68,2631.18 5811.92,2630.99"/>
        <lane id=":1051863450_0_2" index="2" disallow="tram rail_urban rail rail_electric rail_fast ship" speed="22.22" length="0.30" shape="5813.71,2633.66 5813.95,2633.46"/>
    </edge>
    <edge id=":1051863472_0" function="internal">
        <lane id=":1051863472_0_0" index="0" disallow="tram rail_urban rail rail_electric rail_fast ship" speed="22.22" length="16.17" shape="5614.29,2802.40 5604.13,2789.82"/>
    </edge>
    <edge id=":1051863472_1" function="internal">
        <lane id=":1051863472_1_0" index="0" disallow="tram rail_urban rail rail_electric rail_fast ship" speed="7.09" length="10.80" shape="5614.29,2802.40 5613.60,2800.64 5614.08,2798.58 5615.75,2796.21 5618.60,2793.54"/>
    </edge>
    <edge id=":1051863472_2" function="internal">
        <lane id=":1051863472_2_0" index="0" disallow="tram rail_urban rail rail_electric rail_fast ship" speed="3.65" length="4.67" shape="5614.29,2802.40 5614.17,2800.96 5614.54,2800.15 5615.42,2799.96 5616.79,2800.40"/>
    </edge>
    <edge id=":1051863472_3" function="internal">
        <lane id=":1051863472_3_0" index="0" disallow="tram rail_urban rail rail_electric rail_fast ship" speed="6.56" length="9.02" shape="5606.63,2787.82 5608.50,2789.46 5610.44,2790.14 5612.46,2789.85 5614.55,2788.59"/>
    </edge>
    <edge id=":1051863472_4" function="internal">
        <lane id=":1051863472_4_0" index="0" disallow="tram rail_urban rail rail_electric rail_fast ship" speed="22.22" length="16.17" shape="5606.63,2787.82 5616.79,2800.40"/>
    </edge>
    <edge id=":1051863472_5" function="internal">
        <lane id=":1051863472_5_0" index="0" disallow="tram rail_urban rail rail_electric rail_fast ship" speed="3.65" length="4.68" shape="5606.63,2787.82 5606.75,2789.26 5606.38,2790.07 5605.50,2790.26 5604.13,2789.82"/>
    </edge>
    <edge id=":1051863472_6" function="internal">
        <lane id=":1051863472_6_0" index="0" disallow="tram rail_urban rail rail_electric rail_fast ship" speed="6.50" length="9.18" shape="5603.32,2797.78 5605.06,2795.91 5605.77,2793.95 5605.46,2791.92 5604.13,2789.82"/>
    </edge>
    <edge id=":1051863472_7" function="internal">
        <lane id=":1051863472_7_0" index="0" disallow="tram rail_urban rail rail_electric rail_fast ship" speed="22.22" length="14.51" shape="5603.32,2797.78 5614.55,2788.59"/>
        <lane id=":1051863472_7_1" index="1" disallow="tram rail_urban rail rail_electric rail_fast ship" speed="22.22" length="14.51" shape="5605.35,2800.26 5616.57,2791.07"/>
        <lane id=":1051863472_7_2" index="2" disallow="tram rail_urban rail rail_electric rail_fast ship" speed="22.22" length="14.51" shape="5607.37,2802.74 5618.60,2793.54"/>
    </edge>
    <edge id=":1051863472_10" function="internal">
        <lane id=":1051863472_10_0" index="0" disallow="tram rail_urban rail rail_electric rail_fast ship" speed="7.00" length="10.70" shape="5607.37,2802.74 5610.52,2800.50 5613.14,2799.36 5615.23,2799.33 5616.79,2800.40"/>
    </edge>
    <edge id=":1051879665_0" function="internal">
        <lane id=":1051879665_0_0" index="0" disallow="tram rail_urban rail rail_electric rail_fast ship" speed="22.22" length="0.46" shape="5451.78,2921.61 5452.02,2921.43"/>
        <lane id=":1051879665_0_1" index="1" disallow="tram rail_urban rail rail_electric rail_fast ship" speed="22.22" length="0.46" shape="5453.68,2924.19 5454.05,2923.90"/>
        <lane id=":1051879665_0_2" index="2" disallow="tram rail_urban rail rail_electric rail_fast ship" speed="22.22" length="0.46" shape="5455.59,2926.76 5456.07,2926.38"/>
    </edge>
    <edge id=":1052054578_0" function="internal">
        <lane id=":1052054578_0_0" index="0" disallow="tram rail_urban rail rail_electric rail_fast ship" speed="8.33" length="8.19" shape="6924.68,3886.37 6923.59,3888.52 6923.18,3890.17 6922.77,3891.81 6921.66,3893.95"/>
        <lane id=":1052054578_0_1" index="1" disallow="tram rail_urban rail rail_electric rail_fast ship" speed="8.33" length="8.19" shape="6921.98,3884.64 6920.90,3886.78 6920.50,3888.42 6920.09,3890.06 6918.99,3892.19"/>
    </edge>
    <edge id=":1052062181_0" function="internal">
        <lane id=":1052062181_0_0" index="0" disallow="tram rail_urban rail rail_electric rail_fast ship" speed="22.22" length="0.30" shape="7269.67,3027.20 7269.48,3026.96"/>
        <lane id=":1052062181_0_1" index="1" disallow="tram rail_urban rail rail_electric rail_fast ship" speed="22.22" length="0.30" shape="7272.16,3025.19 7271.98,3024.97"/>
    </edge>
    <edge id=":1055377857_0" function="internal">
        <lane id=":1055377857_0_0" index="0" disallow="tram rail_urban rail rail_electric rail_fast ship" speed="6.61" length="9.18" shape="2868.13,7184.88 2865.98,7183.73 2863.93,7183.55 2861.98,7184.37 2860.14,7186.16"/>
    </edge>
    <edge id=":1055377857_1" function="internal">
        <lane id=":1055377857_1_0" index="0" disallow="tram rail_urban rail rail_electric rail_fast ship" speed="22.22" length="14.12" shape="2868.13,7184.88 2856.69,7176.60"/>
    </edge>
    <edge id=":1055377857_2" function="internal">
        <lane id=":1055377857_2_0" index="0" disallow="tram rail_urban rail rail_electric rail_fast ship" speed="7.97" length="4.00" shape="2868.13,7184.88 2865.42,7182.17 2865.36,7182.01"/>
    </edge>
    <edge id=":1055377857_3" function="internal">
        <lane id=":1055377857_3_0" index="0" disallow="tram rail_urban rail rail_electric rail_fast ship" speed="4.21" length="3.49" shape="2868.13,7184.88 2866.14,7184.06 2865.32,7183.00"/>
    </edge>
    <edge id=":1055377857_16" function="internal">
        <lane id=":1055377857_16_0" index="0" disallow="tram rail_urban rail rail_electric rail_fast ship" speed="7.97" length="10.08" shape="2865.36,7182.01 2864.24,7179.22 2864.59,7176.05 2866.47,7172.65"/>
    </edge>
    <edge id=":1055377857_17" function="internal">
        <lane id=":1055377857_17_0" index="0" disallow="tram rail_urban rail rail_electric rail_fast ship" speed="4.21" length="3.49" shape="2865.32,7183.00 2865.68,7181.71 2867.20,7180.19"/>
    </edge>
    <edge id=":1055377857_4" function="internal">
        <lane id=":1055377857_4_0" index="0" disallow="tram rail_urban rail rail_electric rail_fast ship" speed="5.57" length="6.35" shape="2869.03,7174.57 2867.66,7176.60 2866.89,7178.21 2866.74,7179.41 2867.20,7180.19"/>
    </edge>
    <edge id=":1055377857_5" function="internal">
        <lane id=":1055377857_5_0" index="0" disallow="tram rail_urban rail rail_electric rail_fast ship" speed="22.22" length="14.62" shape="2869.03,7174.57 2860.14,7186.16"/>
    </edge>
    <edge id=":1055377857_6" function="internal">
        <lane id=":1055377857_6_0" index="0" disallow="tram rail_urban rail rail_electric rail_fast ship" speed="7.91" length="4.17" shape="2869.03,7174.57 2866.53,7176.63 2865.65,7176.92"/>
    </edge>
    <edge id=":1055377857_7" function="internal">
        <lane id=":1055377857_7_0" index="0" disallow="tram rail_urban rail rail_electric rail_fast ship" speed="3.65" length="1.44" shape="2869.03,7174.57 2867.67,7175.05"/>
    </edge>
    <edge id=":1055377857_18" function="internal">
        <lane id=":1055377857_18_0" index="0" disallow="tram rail_urban rail rail_electric rail_fast ship" speed="7.91" length="9.30" shape="2865.65,7176.92 2863.21,7177.73 2859.71,7177.76 2856.69,7176.60"/>
    </edge>
    <edge id=":1055377857_19" function="internal">
        <lane id=":1055377857_19_0" index="0" disallow="tram rail_urban rail rail_electric rail_fast ship" speed="3.65" length="3.23" shape="2867.67,7175.05 2866.79,7174.89 2866.39,7174.09 2866.47,7172.65"/>
    </edge>
    <edge id=":1055377857_8" function="internal">
        <lane id=":1055377857_8_0" index="0" disallow="tram rail_urban rail rail_electric rail_fast ship" speed="6.63" length="9.18" shape="2858.46,7173.93 2860.69,7175.06 2862.77,7175.23 2864.70,7174.42 2866.47,7172.65"/>
    </edge>
    <edge id=":1055377857_9" function="internal">
        <lane id=":1055377857_9_0" index="0" disallow="tram rail_urban rail rail_electric rail_fast ship" speed="22.22" length="10.76" shape="2858.46,7173.93 2867.20,7180.19"/>
    </edge>
    <edge id=":1055377857_10" function="internal">
        <lane id=":1055377857_10_0" index="0" disallow="tram rail_urban rail rail_electric rail_fast ship" speed="7.87" length="4.14" shape="2858.46,7173.93 2861.29,7176.61 2861.39,7176.83"/>
    </edge>
    <edge id=":1055377857_11" function="internal">
        <lane id=":1055377857_11_0" index="0" disallow="tram rail_urban rail rail_electric rail_fast ship" speed="3.65" length="1.44" shape="2858.46,7173.93 2859.02,7175.26"/>
    </edge>
    <edge id=":1055377857_20" function="internal">
        <lane id=":1055377857_20_0" index="0" disallow="tram rail_urban rail rail_electric rail_fast ship" speed="7.87" length="10.12" shape="2861.39,7176.83 2862.52,7179.54 2862.13,7182.72 2860.14,7186.16"/>
    </edge>
    <edge id=":1055377857_21" function="internal">
        <lane id=":1055377857_21_0" index="0" disallow="tram rail_urban rail rail_electric rail_fast ship" speed="3.65" length="3.23" shape="2859.02,7175.26 2858.91,7176.15 2858.14,7176.59 2856.69,7176.60"/>
    </edge>
    <edge id=":1055377857_12" function="internal">
        <lane id=":1055377857_12_0" index="0" disallow="tram rail_urban rail rail_electric rail_fast ship" speed="6.32" length="8.82" shape="2857.62,7184.19 2858.88,7182.03 2859.15,7180.05 2858.42,7178.24 2856.69,7176.60"/>
    </edge>
    <edge id=":1055377857_13" function="internal">
        <lane id=":1055377857_13_0" index="0" disallow="tram rail_urban rail rail_electric rail_fast ship" speed="22.22" length="14.54" shape="2857.62,7184.19 2866.47,7172.65"/>
    </edge>
    <edge id=":1055377857_14" function="internal">
        <lane id=":1055377857_14_0" index="0" disallow="tram rail_urban rail rail_electric rail_fast ship" speed="7.16" length="4.89" shape="2857.62,7184.19 2859.73,7182.20 2861.44,7181.19"/>
    </edge>
    <edge id=":1055377857_15" function="internal">
        <lane id=":1055377857_15_0" index="0" disallow="tram rail_urban rail rail_electric rail_fast ship" speed="3.65" length="1.44" shape="2857.62,7184.19 2858.99,7183.74"/>
    </edge>
    <edge id=":1055377857_22" function="internal">
        <lane id=":1055377857_22_0" index="0" disallow="tram rail_urban rail rail_electric rail_fast ship" speed="7.16" length="6.08" shape="2861.44,7181.19 2862.45,7180.60 2865.15,7179.79 2867.20,7180.19"/>
    </edge>
    <edge id=":1055377857_23" function="internal">
        <lane id=":1055377857_23_0" index="0" disallow="tram rail_urban rail rail_electric rail_fast ship" speed="3.65" length="3.23" shape="2858.99,7183.74 2859.87,7183.92 2860.25,7184.73 2860.14,7186.16"/>
    </edge>
    <edge id=":1055377860_0" function="internal">
        <lane id=":1055377860_0_0" index="0" disallow="tram rail_urban rail rail_electric rail_fast ship" speed="8.33" length="0.10" shape="1524.79,7775.41 1524.79,7775.41"/>
    </edge>
    <edge id=":1055377860_1" function="internal">
        <lane id=":1055377860_1_0" index="0" disallow="tram rail_urban rail rail_electric rail_fast ship" speed="8.33" length="0.10" shape="1526.53,7772.73 1526.53,7772.73"/>
    </edge>
    <edge id=":10554158120_0" function="internal">
        <lane id=":10554158120_0_0" index="0" disallow="tram rail_urban rail rail_electric rail_fast ship" speed="7.07" length="8.90" shape="5053.39,3152.84 5051.47,3152.13 5049.50,3152.25 5047.50,3153.18 5045.47,3154.92"/>
        <lane id=":10554158120_0_1" index="1" disallow="tram rail_urban rail rail_electric rail_fast ship" speed="7.83" length="11.09" shape="5053.39,3152.84 5050.25,3151.38 5047.50,3150.87 5045.13,3151.31 5043.15,3152.71"/>
    </edge>
    <edge id=":10554158120_2" function="internal">
        <lane id=":10554158120_2_0" index="0" disallow="tram rail_urban rail rail_electric rail_fast ship" speed="22.22" length="12.89" shape="5053.39,3152.84 5042.25,3146.36"/>
        <lane id=":10554158120_2_1" index="1" disallow="tram rail_urban rail rail_electric rail_fast ship" speed="22.22" length="12.89" shape="5055.00,3150.07 5043.86,3143.59"/>
    </edge>
    <edge id=":1055437072_0" function="internal">
        <lane id=":1055437072_0_0" index="0" disallow="tram rail_urban rail rail_electric rail_fast ship" speed="8.33" length="0.30" shape="3185.16,6974.40 3185.33,6974.18"/>
        <lane id=":1055437072_0_1" index="1" disallow="tram rail_urban rail rail_electric rail_fast ship" speed="8.33" length="0.30" shape="3187.68,6976.38 3187.86,6976.14"/>
        <lane id=":1055437072_0_2" index="2" disallow="tram rail_urban rail rail_electric rail_fast ship" speed="8.33" length="0.30" shape="3190.19,6978.36 3190.39,6978.10"/>
    </edge>
    <edge id=":1055437091_0" function="internal">
        <lane id=":1055437091_0_0" index="0" disallow="tram rail_urban rail rail_electric rail_fast ship" speed="22.22" length="14.41" shape="3151.94,7111.22 3140.98,7101.85"/>
    </edge>
    <edge id=":1055437091_1" function="internal">
        <lane id=":1055437091_1_0" index="0" disallow="tram rail_urban rail rail_electric rail_fast ship" speed="3.65" length="1.44" shape="3151.94,7111.22 3151.54,7109.83"/>
    </edge>
    <edge id=":1055437091_6" function="internal">
        <lane id=":1055437091_6_0" index="0" disallow="tram rail_urban rail rail_electric rail_fast ship" speed="3.65" length="3.23" shape="3151.54,7109.83 3151.76,7108.96 3152.59,7108.61 3154.02,7108.78"/>
    </edge>
    <edge id=":1055437091_2" function="internal">
        <lane id=":1055437091_2_0" index="0" disallow="tram rail_urban rail rail_electric rail_fast ship" speed="6.33" length="9.04" shape="3153.75,7101.02 3152.23,7103.02 3151.77,7104.98 3152.36,7106.90 3154.02,7108.78"/>
    </edge>
    <edge id=":1055437091_3" function="internal">
        <lane id=":1055437091_3_0" index="0" disallow="tram rail_urban rail rail_electric rail_fast ship" speed="7.67" length="12.07" shape="3151.51,7098.74 3148.38,7101.36 3145.58,7102.75 3143.12,7102.92 3140.98,7101.85"/>
    </edge>
    <edge id=":1055437091_4" function="internal">
        <lane id=":1055437091_4_0" index="0" disallow="tram rail_urban rail rail_electric rail_fast ship" speed="22.22" length="14.42" shape="3143.05,7099.42 3154.02,7108.78"/>
    </edge>
    <edge id=":1055437091_5" function="internal">
        <lane id=":1055437091_5_0" index="0" disallow="tram rail_urban rail rail_electric rail_fast ship" speed="3.65" length="1.44" shape="3143.05,7099.42 3143.45,7100.80"/>
    </edge>
    <edge id=":1055437091_7" function="internal">
        <lane id=":1055437091_7_0" index="0" disallow="tram rail_urban rail rail_electric rail_fast ship" speed="3.65" length="3.23" shape="3143.45,7100.80 3143.23,7101.67 3142.41,7102.02 3140.98,7101.85"/>
    </edge>
    <edge id=":1055437116_0" function="internal">
        <lane id=":1055437116_0_0" index="0" disallow="tram rail_urban rail rail_electric rail_fast ship" speed="8.33" length="0.30" shape="3403.95,6855.16 3403.73,6855.38"/>
        <lane id=":1055437116_0_1" index="1" disallow="tram rail_urban rail rail_electric rail_fast ship" speed="8.33" length="0.30" shape="3401.69,6852.89 3401.50,6853.09"/>
    </edge>
    <edge id=":1055467210_0" function="internal">
        <lane id=":1055467210_0_0" index="0" disallow="tram rail_urban rail rail_electric rail_fast ship" speed="22.22" length="0.10" shape="3926.06,4171.18 3926.06,4171.18"/>
    </edge>
    <edge id=":1055467210_1" function="internal">
        <lane id=":1055467210_1_0" index="0" disallow="tram rail_urban rail rail_electric rail_fast ship" speed="22.22" length="0.10" shape="3928.06,4168.68 3928.06,4168.68"/>
    </edge>
    <edge id=":1057501014_0" function="internal">
        <lane id=":1057501014_0_0" index="0" disallow="tram rail_urban rail rail_electric rail_fast ship" speed="22.22" length="0.31" shape="3039.91,5538.95 3039.71,5539.19"/>
    </edge>
    <edge id=":1057501014_1" function="internal">
        <lane id=":1057501014_1_0" index="0" disallow="tram rail_urban rail rail_electric rail_fast ship" speed="22.22" length="0.24" shape="3037.25,5537.14 3037.40,5536.96"/>
    </edge>
    <edge id=":1068441295_0" function="internal">
        <lane id=":1068441295_0_0" index="0" disallow="tram rail_urban rail rail_electric rail_fast ship" speed="8.33" length="0.30" shape="4433.79,3470.36 4433.60,3470.56"/>
        <lane id=":1068441295_0_1" index="1" disallow="tram rail_urban rail rail_electric rail_fast ship" speed="8.33" length="0.30" shape="4431.48,3468.14 4431.28,3468.36"/>
        <lane id=":1068441295_0_2" index="2" disallow="tram rail_urban rail rail_electric rail_fast ship" speed="8.33" length="0.30" shape="4429.17,3465.93 4428.96,3466.16"/>
    </edge>
    <edge id=":1378784508_0" function="internal">
        <lane id=":1378784508_0_0" index="0" disallow="tram rail_urban rail rail_electric rail_fast ship" speed="8.33" length="0.10" shape="1132.66,7365.47 1132.58,7365.40"/>
    </edge>
    <edge id=":1378784508_1" function="internal">
        <lane id=":1378784508_1_0" index="0" disallow="tram rail_urban rail rail_electric rail_fast ship" speed="8.33" length="0.31" shape="1134.79,7363.08 1135.00,7363.30"/>
    </edge>
    <edge id=":1406247486_0" function="internal">
        <lane id=":1406247486_0_0" index="0" disallow="tram rail_urban rail rail_electric rail_fast ship" speed="27.78" length="0.24" shape="5265.85,5243.48 5265.73,5243.61"/>
        <lane id=":1406247486_0_1" index="1" disallow="tram rail_urban rail rail_electric rail_fast ship" speed="27.78" length="0.24" shape="5263.58,5241.22 5263.37,5241.45"/>
    </edge>
    <edge id=":1406247496_0" function="internal">
        <lane id=":1406247496_0_0" index="0" disallow="tram rail_urban rail rail_electric rail_fast ship" speed="8.33" length="0.29" shape="5255.69,5231.49 5255.89,5231.29"/>
        <lane id=":1406247496_0_1" index="1" disallow="tram rail_urban rail rail_electric rail_fast ship" speed="8.33" length="0.29" shape="5257.98,5233.72 5258.20,5233.50"/>
    </edge>
    <edge id=":1582175143_0" function="internal">
        <lane id=":1582175143_0_0" index="0" disallow="tram rail_urban rail rail_electric rail_fast ship" speed="8.33" length="1.08" shape="4939.99,3541.49 4940.52,3541.49 4940.89,3541.51 4941.25,3541.57 4941.77,3541.68"/>
        <lane id=":1582175143_0_1" index="1" disallow="tram rail_urban rail rail_electric rail_fast ship" speed="8.33" length="1.08" shape="4940.01,3544.69 4940.33,3544.69 4940.55,3544.71 4940.76,3544.74 4941.08,3544.81"/>
        <lane id=":1582175143_0_2" index="2" disallow="tram rail_urban rail rail_electric rail_fast ship" speed="8.33" length="1.08" shape="4940.03,3547.89 4940.14,3547.89 4940.21,3547.90 4940.28,3547.91 4940.38,3547.93"/>
    </edge>
    <edge id=":1582175145_0" function="internal">
        <lane id=":1582175145_0_0" index="0" disallow="tram rail_urban rail rail_electric rail_fast ship" speed="6.52" length="8.44" shape="4960.24,3549.02 4962.21,3550.18 4964.12,3550.48 4965.97,3549.93 4967.77,3548.51"/>
        <lane id=":1582175145_0_1" index="1" disallow="tram rail_urban rail rail_electric rail_fast ship" speed="7.35" length="10.99" shape="4960.24,3549.02 4963.29,3551.07 4965.95,3552.04 4968.21,3551.92 4970.08,3550.72"/>
    </edge>
    <edge id=":1582175145_2" function="internal">
[...]
    <connection from=":9389041894_0" to="1017919261" fromLane="0" toLane="0" dir="s" state="M"/>
    <connection from=":9389041894_0" to="1017919261" fromLane="1" toLane="1" dir="s" state="M"/>
    <connection from=":9389041894_0" to="1017919261" fromLane="2" toLane="2" dir="s" state="M"/>
    <connection from=":9407285694_0" to="1067962802" fromLane="0" toLane="0" dir="s" state="M"/>
    <connection from=":9407285694_0" to="1067962802" fromLane="1" toLane="1" dir="s" state="M"/>
    <connection from=":9412088859_0" to="90676186#0" fromLane="0" toLane="0" dir="r" state="M"/>
    <connection from=":9412088888_0" to="90676116#2" fromLane="0" toLane="0" dir="s" state="M"/>
    <connection from=":9412088888_1" to="90676116#2" fromLane="0" toLane="0" dir="s" state="M"/>
    <connection from=":9412088888_1" to="90676116#2" fromLane="1" toLane="1" dir="s" state="M"/>
    <connection from=":9414417440_0" to="1078333898#0" fromLane="0" toLane="0" dir="s" state="M"/>
    <connection from=":9414417440_0" to="1078333898#0" fromLane="1" toLane="1" dir="s" state="M"/>
    <connection from=":9414417440_0" to="1078333898#0" fromLane="2" toLane="2" dir="s" state="M"/>
    <connection from=":9415243819_0" to="532640168#1" fromLane="0" toLane="0" dir="s" state="M"/>
    <connection from=":9415243819_0" to="532640168#1" fromLane="1" toLane="1" dir="s" state="M"/>
    <connection from=":9442982716_0" to="741140828#0" fromLane="0" toLane="0" dir="s" state="M"/>
    <connection from=":9442982716_0" to="741140828#0" fromLane="1" toLane="1" dir="s" state="M"/>
    <connection from=":9488743489_0" to="1029205981" fromLane="0" toLane="0" dir="s" state="M"/>
    <connection from=":9488743489_0" to="1029205981" fromLane="1" toLane="1" dir="s" state="M"/>
    <connection from=":9488743490_0" to="1029205982" fromLane="0" toLane="0" dir="s" state="M"/>
    <connection from=":9488743490_0" to="1029205982" fromLane="1" toLane="1" dir="s" state="M"/>
    <connection from=":9545315713_0" to="1054811092" fromLane="0" toLane="0" dir="s" state="M"/>
    <connection from=":9545315713_0" to="1054811092" fromLane="1" toLane="1" dir="s" state="M"/>
    <connection from=":9545315713_0" to="1054811092" fromLane="2" toLane="2" dir="s" state="M"/>
    <connection from=":9641497344_0" to="1068357232" fromLane="0" toLane="0" dir="r" state="M"/>
    <connection from=":9641497344_1" to="1068357234" fromLane="0" toLane="0" dir="s" state="M"/>
    <connection from=":9641497344_2" to="1068357232" fromLane="0" toLane="0" dir="s" state="M"/>
    <connection from=":9641497344_2" to="1068357232" fromLane="1" toLane="1" dir="s" state="M"/>
    <connection from=":9641497344_2" to="1068357232" fromLane="2" toLane="2" dir="s" state="M"/>
    <connection from=":9641497344_5" to="1068357234" fromLane="0" toLane="0" dir="l" state="M"/>
    <connection from=":9641497392_0" to="1125183845" fromLane="0" toLane="0" dir="s" state="M"/>
    <connection from=":9641497392_1" to="-1020832130" fromLane="0" toLane="0" dir="s" state="M"/>
    <connection from=":9641497394_0" to="744954505#0" fromLane="0" toLane="0" dir="s" state="M"/>
    <connection from=":9641497394_1" to="-1125183846" fromLane="0" toLane="0" dir="s" state="M"/>
    <connection from=":9641537951_0" to="1049124932" fromLane="0" toLane="0" dir="r" state="M"/>
    <connection from=":9641537951_1" to="1155113427#1" fromLane="0" toLane="0" dir="s" state="M"/>
    <connection from=":9641537951_1" to="1155113427#1" fromLane="1" toLane="1" dir="s" state="M"/>
    <connection from=":9641537953_0" to="-272350862" fromLane="0" toLane="0" dir="s" state="M"/>
    <connection from=":9641537953_1" to="1049124931" fromLane="0" toLane="0" dir="s" state="M"/>
    <connection from=":968389246_0" to="639739283" fromLane="0" toLane="0" dir="r" state="M"/>
    <connection from=":968389246_1" to="1164686321" fromLane="0" toLane="0" dir="s" state="M"/>
    <connection from=":968389246_1" to="1164686321" fromLane="1" toLane="1" dir="s" state="M"/>
    <connection from=":968389246_3" to="639739283" fromLane="0" toLane="0" dir="s" state="M"/>
    <connection from=":968389246_3" to="639739283" fromLane="1" toLane="1" dir="s" state="M"/>
    <connection from=":968389246_5" to="1164686321" fromLane="0" toLane="1" dir="l" state="M"/>
    <connection from=":9687046038_0" to="90890560#1" fromLane="0" toLane="0" dir="s" state="M"/>
    <connection from=":9687046038_1" to="-1164558947" fromLane="0" toLane="0" via=":9687046038_9_0" dir="l" state="m"/>
    <connection from=":9687046038_9" to="-1164558947" fromLane="0" toLane="0" dir="l" state="M"/>
    <connection from=":9687046038_2" to="-90890560#0" fromLane="0" toLane="0" via=":9687046038_10_0" dir="t" state="m"/>
    <connection from=":9687046038_10" to="-90890560#0" fromLane="0" toLane="0" dir="t" state="M"/>
    <connection from=":9687046038_3" to="-90890560#0" fromLane="0" toLane="0" dir="r" state="M"/>
    <connection from=":9687046038_4" to="90890560#1" fromLane="0" toLane="0" dir="l" state="M"/>
    <connection from=":9687046038_5" to="-1164558947" fromLane="0" toLane="0" dir="t" state="M"/>
    <connection from=":9687046038_6" to="-1164558947" fromLane="0" toLane="0" dir="r" state="M"/>
    <connection from=":9687046038_7" to="-90890560#0" fromLane="0" toLane="0" dir="s" state="M"/>
    <connection from=":9687046038_8" to="90890560#1" fromLane="0" toLane="0" via=":9687046038_11_0" dir="t" state="m"/>
    <connection from=":9687046038_11" to="90890560#1" fromLane="0" toLane="0" dir="t" state="M"/>
    <connection from=":9692829237_0" to="91078347#3" fromLane="0" toLane="0" dir="s" state="M"/>
    <connection from=":9692829237_0" to="91078347#3" fromLane="1" toLane="1" dir="s" state="M"/>
    <connection from=":9692829237_0" to="91078347#3" fromLane="2" toLane="2" dir="s" state="M"/>
    <connection from=":970713434_0" to="90882227" fromLane="0" toLane="1" dir="t" state="M"/>
    <connection from=":970713434_1" to="90882227" fromLane="0" toLane="0" dir="s" state="M"/>
    <connection from=":9710117500_0" to="1067962803#0" fromLane="0" toLane="0" dir="s" state="M"/>
    <connection from=":9710117500_0" to="1067962803#0" fromLane="1" toLane="1" dir="s" state="M"/>
    <connection from=":9710117501_0" to="1071799956#1" fromLane="0" toLane="0" dir="s" state="M"/>
    <connection from=":9710117501_0" to="1071799956#1" fromLane="1" toLane="1" dir="s" state="M"/>
    <connection from=":9710117503_0" to="1067962803#1" fromLane="0" toLane="0" dir="s" state="M"/>
    <connection from=":9710117503_0" to="1067962803#1" fromLane="1" toLane="1" dir="s" state="M"/>
    <connection from=":9710117508_0" to="187738093#2" fromLane="0" toLane="0" dir="s" state="M"/>
    <connection from=":9710117508_0" to="187738093#2" fromLane="1" toLane="1" dir="s" state="M"/>
    <connection from=":9710117509_0" to="532640168#2" fromLane="0" toLane="0" dir="s" state="M"/>
    <connection from=":9710117509_0" to="532640168#2" fromLane="1" toLane="1" dir="s" state="M"/>
    <connection from=":9710117510_0" to="187738093#1" fromLane="0" toLane="0" dir="s" state="M"/>
    <connection from=":9710117510_0" to="187738093#1" fromLane="1" toLane="1" dir="s" state="M"/>
    <connection from=":9727752560_0" to="1176362939" fromLane="0" toLane="0" dir="s" state="M"/>
    <connection from=":9727752560_0" to="1176362939" fromLane="1" toLane="1" dir="s" state="M"/>
    <connection from=":9843260464_0" to="1157050954#2" fromLane="0" toLane="0" dir="s" state="M"/>
    <connection from=":9843260464_0" to="1157050954#2" fromLane="1" toLane="1" dir="s" state="M"/>
    <connection from=":9843260487_0" to="89868180#1" fromLane="0" toLane="0" dir="s" state="M"/>
    <connection from=":9843260487_0" to="89868180#1" fromLane="1" toLane="1" dir="s" state="M"/>
    <connection from=":9843260488_0" to="1083633685#1" fromLane="0" toLane="0" dir="s" state="M"/>
    <connection from=":9843260488_0" to="1083633685#1" fromLane="1" toLane="1" dir="s" state="M"/>
    <connection from=":9843260524_0" to="1083633685#0" fromLane="0" toLane="0" dir="r" state="M"/>
    <connection from=":9843260524_1" to="1083633684" fromLane="0" toLane="0" dir="s" state="M"/>
    <connection from=":9843260524_1" to="1083633684" fromLane="1" toLane="1" dir="s" state="M"/>
    <connection from=":9843260524_3" to="1083633685#0" fromLane="0" toLane="0" dir="s" state="M"/>
    <connection from=":9843260524_3" to="1083633685#0" fromLane="1" toLane="1" dir="s" state="M"/>
    <connection from=":9843260524_5" to="1083633684" fromLane="0" toLane="1" dir="l" state="M"/>
    <connection from=":9843260525_0" to="1157050954#0" fromLane="0" toLane="0" dir="s" state="M"/>
    <connection from=":9843260525_0" to="1157050954#0" fromLane="1" toLane="1" dir="s" state="M"/>
    <connection from=":9843260525_2" to="1083633682#0" fromLane="0" toLane="1" dir="l" state="M"/>
    <connection from=":9843260525_3" to="1157050954#0" fromLane="0" toLane="0" dir="r" state="M"/>
    <connection from=":9843260525_4" to="1083633682#0" fromLane="0" toLane="0" dir="s" state="M"/>
    <connection from=":9843260525_4" to="1083633682#0" fromLane="1" toLane="1" dir="s" state="M"/>
    <connection from=":9843260526_0" to="1083633682#1" fromLane="0" toLane="0" dir="s" state="M"/>
    <connection from=":9843260526_0" to="1083633682#1" fromLane="1" toLane="1" dir="s" state="M"/>
    <connection from=":9843260529_0" to="1089244017" fromLane="0" toLane="0" dir="s" state="M"/>
    <connection from=":9843260529_0" to="1089244017" fromLane="1" toLane="1" dir="s" state="M"/>
    <connection from=":9843260560_0" to="1083633695#1" fromLane="0" toLane="0" dir="s" state="M"/>
    <connection from=":9843260560_0" to="1083633695#1" fromLane="1" toLane="1" dir="s" state="M"/>
    <connection from=":9843260560_0" to="1083633695#1" fromLane="2" toLane="2" dir="s" state="M"/>
    <connection from=":9843260560_0" to="1083633695#1" fromLane="3" toLane="3" dir="s" state="M"/>
    <connection from=":9843260561_0" to="1083633695#2" fromLane="0" toLane="0" dir="s" state="M"/>
    <connection from=":9843260561_0" to="1083633695#2" fromLane="1" toLane="1" dir="s" state="M"/>
    <connection from=":9843260561_0" to="1083633695#2" fromLane="2" toLane="2" dir="s" state="M"/>
    <connection from=":9843260561_0" to="1083633695#2" fromLane="3" toLane="3" dir="s" state="M"/>
    <connection from=":9843260562_0" to="1083633694" fromLane="0" toLane="0" dir="s" state="M"/>
    <connection from=":9843260562_0" to="1083633694" fromLane="1" toLane="1" dir="s" state="M"/>
    <connection from=":9843260562_2" to="1083633695#0" fromLane="0" toLane="2" dir="l" state="M"/>
    <connection from=":9843260562_2" to="1083633695#0" fromLane="1" toLane="3" dir="l" state="M"/>
    <connection from=":9843260562_4" to="1083633694" fromLane="0" toLane="0" dir="r" state="M"/>
    <connection from=":9843260562_5" to="1083633695#0" fromLane="0" toLane="0" dir="s" state="M"/>
    <connection from=":9843260562_5" to="1083633695#0" fromLane="1" toLane="1" dir="s" state="M"/>
    <connection from=":9843260562_5" to="1083633695#0" fromLane="2" toLane="2" dir="s" state="M"/>
    <connection from=":9843260562_5" to="1083633695#0" fromLane="3" toLane="3" dir="s" state="M"/>
    <connection from=":9843260615_0" to="1072865846#0" fromLane="0" toLane="0" dir="s" state="M"/>
    <connection from=":9843260615_0" to="1072865846#0" fromLane="1" toLane="1" dir="s" state="M"/>
    <connection from=":9843260617_0" to="1072920565" fromLane="0" toLane="0" dir="s" state="M"/>
    <connection from=":9843260617_0" to="1072920565" fromLane="1" toLane="1" dir="s" state="M"/>
    <connection from=":9854589568_0" to="1083633683#1" fromLane="0" toLane="0" dir="s" state="M"/>
    <connection from=":9854589568_0" to="1083633683#1" fromLane="1" toLane="1" dir="s" state="M"/>
    <connection from=":9854618659_0" to="585219631#1" fromLane="0" toLane="0" dir="s" state="M"/>
    <connection from=":9854618659_0" to="585219631#1" fromLane="1" toLane="1" dir="s" state="M"/>
    <connection from=":9854618668_0" to="585219631#2" fromLane="0" toLane="0" dir="r" state="M"/>
    <connection from=":9854618668_1" to="1072865846#1" fromLane="0" toLane="0" dir="s" state="M"/>
    <connection from=":9854618668_1" to="1072865846#1" fromLane="1" toLane="1" dir="s" state="M"/>
    <connection from=":9854618668_3" to="585219631#2" fromLane="0" toLane="0" dir="s" state="M"/>
    <connection from=":9854618668_3" to="585219631#2" fromLane="1" toLane="1" dir="s" state="M"/>
    <connection from=":9854618668_5" to="1072865846#1" fromLane="0" toLane="1" dir="l" state="M"/>
    <connection from=":9854626551_0" to="1157050954#1" fromLane="0" toLane="0" dir="s" state="M"/>
    <connection from=":9854626551_0" to="1157050954#1" fromLane="1" toLane="1" dir="s" state="M"/>
    <connection from=":9886100884_0" to="24213928#1" fromLane="0" toLane="0" dir="s" state="M"/>
    <connection from=":9886100884_0" to="24213928#1" fromLane="1" toLane="1" dir="s" state="M"/>
    <connection from=":9886100885_0" to="1092161875#1" fromLane="0" toLane="0" dir="s" state="M"/>
    <connection from=":9886100885_0" to="1092161875#1" fromLane="1" toLane="1" dir="s" state="M"/>
    <connection from=":988804006_0" to="915605796#0" fromLane="0" toLane="0" dir="s" state="M"/>
    <connection from=":988804006_0" to="915605796#0" fromLane="1" toLane="1" dir="s" state="M"/>
    <connection from=":988804200_0" to="1046882684#0" fromLane="0" toLane="0" dir="s" state="M"/>
    <connection from=":988804200_0" to="1046882684#0" fromLane="1" toLane="1" dir="s" state="M"/>
    <connection from=":9990821451_0" to="1008728263#1" fromLane="0" toLane="0" dir="s" state="M"/>
    <connection from=":9990821451_0" to="1008728263#1" fromLane="1" toLane="1" dir="s" state="M"/>
    <connection from=":9990821451_0" to="1008728263#1" fromLane="2" toLane="2" dir="s" state="M"/>
    <connection from=":9990821462_0" to="1154503115#1" fromLane="0" toLane="0" dir="s" state="M"/>
    <connection from=":9990821462_0" to="1154503115#1" fromLane="1" toLane="1" dir="s" state="M"/>
    <connection from=":9990821482_0" to="1154503114#1" fromLane="0" toLane="0" dir="s" state="M"/>
    <connection from=":9990821482_0" to="1154503114#1" fromLane="1" toLane="1" dir="s" state="M"/>
    <connection from=":9990821485_0" to="1067894872#1" fromLane="0" toLane="0" dir="s" state="M"/>
    <connection from=":9990821485_0" to="1067894872#1" fromLane="1" toLane="1" dir="s" state="M"/>
    <connection from=":9990821510_0" to="1056629932#1" fromLane="0" toLane="0" dir="s" state="M"/>
    <connection from=":9990821510_0" to="1056629932#1" fromLane="1" toLane="1" dir="s" state="M"/>
    <connection from=":9990821510_2" to="-1056629932#0" fromLane="0" toLane="0" dir="s" state="M"/>
    <connection from=":9990821510_2" to="-1056629932#0" fromLane="1" toLane="1" dir="s" state="M"/>
    <connection from=":9990828936_0" to="612106146#2" fromLane="0" toLane="0" dir="s" state="M"/>
    <connection from=":9990828936_0" to="612106146#2" fromLane="1" toLane="1" dir="s" state="M"/>
    <connection from=":9990828936_2" to="-612106146#1" fromLane="0" toLane="0" dir="s" state="M"/>
    <connection from=":9990828936_2" to="-612106146#1" fromLane="1" toLane="1" dir="s" state="M"/>
    <connection from=":9991119859_0" to="1061064646#1" fromLane="0" toLane="0" dir="s" state="M"/>
    <connection from=":9991119859_0" to="1061064646#1" fromLane="1" toLane="1" dir="s" state="M"/>
    <connection from=":9991119860_0" to="1061064644#1" fromLane="0" toLane="0" dir="s" state="M"/>
    <connection from=":9991119860_0" to="1061064644#1" fromLane="1" toLane="1" dir="s" state="M"/>
    <connection from=":9991119864_0" to="1008935970#1" fromLane="0" toLane="0" dir="s" state="M"/>
    <connection from=":9991119864_0" to="1008935970#1" fromLane="1" toLane="1" dir="s" state="M"/>
    <connection from=":9991119867_0" to="1008935970#3" fromLane="0" toLane="0" dir="s" state="M"/>
    <connection from=":9991119867_0" to="1008935970#3" fromLane="1" toLane="1" dir="s" state="M"/>
    <connection from=":9991119868_0" to="918764989#1" fromLane="0" toLane="0" dir="s" state="M"/>
    <connection from=":9991119868_0" to="918764989#1" fromLane="1" toLane="1" dir="s" state="M"/>
    <connection from=":9991119882_0" to="-1009665677#0" fromLane="0" toLane="0" dir="s" state="M"/>
    <connection from=":9991119882_1" to="1009665677#1" fromLane="0" toLane="0" dir="s" state="M"/>
    <connection from=":9991119886_0" to="90890566#1" fromLane="0" toLane="0" dir="s" state="M"/>
    <connection from=":9991119886_0" to="90890566#1" fromLane="1" toLane="1" dir="s" state="M"/>
    <connection from=":9991119887_0" to="612095035#3" fromLane="0" toLane="0" dir="s" state="M"/>
    <connection from=":9991119887_0" to="612095035#3" fromLane="1" toLane="1" dir="s" state="M"/>
    <connection from=":9991119891_0" to="612095031#1" fromLane="0" toLane="0" dir="s" state="M"/>
    <connection from=":9991119891_0" to="612095031#1" fromLane="1" toLane="1" dir="s" state="M"/>
    <connection from=":9991119892_0" to="90890593#1" fromLane="0" toLane="0" dir="s" state="M"/>
    <connection from=":9991119892_0" to="90890593#1" fromLane="1" toLane="1" dir="s" state="M"/>
    <connection from=":9991119894_0" to="90890593#2" fromLane="0" toLane="0" dir="s" state="M"/>
    <connection from=":9991119894_0" to="90890593#2" fromLane="1" toLane="1" dir="s" state="M"/>
    <connection from=":9991119895_0" to="626438253#1" fromLane="0" toLane="0" dir="s" state="M"/>
    <connection from=":9991119895_0" to="626438253#1" fromLane="1" toLane="1" dir="s" state="M"/>
    <connection from=":9991119897_0" to="47286100#1" fromLane="0" toLane="0" dir="s" state="M"/>
    <connection from=":9991119897_0" to="47286100#1" fromLane="1" toLane="1" dir="s" state="M"/>
    <connection from=":9991119898_0" to="779706331#1" fromLane="0" toLane="0" dir="s" state="M"/>
    <connection from=":9991119898_0" to="779706331#1" fromLane="1" toLane="1" dir="s" state="M"/>
    <connection from=":9991119904_0" to="25839828#2" fromLane="0" toLane="0" dir="s" state="M"/>
    <connection from=":9991119904_0" to="25839828#2" fromLane="1" toLane="1" dir="s" state="M"/>
    <connection from=":9991119905_0" to="1009968501#1" fromLane="0" toLane="0" dir="s" state="M"/>
    <connection from=":9991119905_0" to="1009968501#1" fromLane="1" toLane="1" dir="s" state="M"/>
    <connection from=":9991119914_0" to="1009968501#2" fromLane="0" toLane="0" dir="s" state="M"/>
    <connection from=":9991119914_0" to="1009968501#2" fromLane="1" toLane="1" dir="s" state="M"/>
    <connection from=":9991119915_0" to="25839828#1" fromLane="0" toLane="0" dir="s" state="M"/>
    <connection from=":9991119915_0" to="25839828#1" fromLane="1" toLane="1" dir="s" state="M"/>
    <connection from=":9991127732_0" to="241117394#1" fromLane="0" toLane="0" dir="s" state="M"/>
    <connection from=":9991127732_0" to="241117394#1" fromLane="1" toLane="1" dir="s" state="M"/>
    <connection from=":9991127752_0" to="340713826#1" fromLane="0" toLane="0" dir="s" state="M"/>
    <connection from=":9991127752_0" to="340713826#1" fromLane="1" toLane="1" dir="s" state="M"/>
    <connection from=":9991127753_0" to="1071799952#1" fromLane="0" toLane="0" dir="s" state="M"/>
    <connection from=":9991127753_0" to="1071799952#1" fromLane="1" toLane="1" dir="s" state="M"/>

    <roundabout nodes="277323482 283264572 283264575 4054696207 5791920986 5791921016 5791921017 7609702886" edges="1174405427#0 1174405427#1 1174405427#2 1174654441 1174654442 611778475 983664936 983664937"/>
    <roundabout nodes="1582175143 1582175145 634193479 634193620 8255876946" edges="144683952#0 144683952#1 144683952#2 144683952#3 144683952#4"/>

</net>
